
---------- Begin Simulation Statistics ----------
simSeconds                                   0.000293                       # Number of seconds simulated (Second)
simTicks                                    292616000                       # Number of ticks simulated (Tick)
finalTick                                   292616000                       # Number of ticks from beginning of simulation (restored from checkpoints and never reset) (Tick)
simFreq                                  1000000000000                       # The number of ticks per simulated second ((Tick/Second))
hostSeconds                                      4.13                       # Real time elapsed on the host (Second)
hostTickRate                                 70917562                       # The number of ticks simulated per host second (ticks/s) ((Tick/Second))
hostMemory                                    2718932                       # Number of bytes of host memory used (Byte)
simInsts                                      2019857                       # Number of instructions simulated (Count)
simOps                                        3739257                       # Number of ops (including micro ops) simulated (Count)
hostInstRate                                   489517                       # Simulator instruction rate (inst/s) ((Count/Second))
hostOpRate                                     906217                       # Simulator op (including micro ops) rate (op/s) ((Count/Second))
system.clk_domain.clock                          1000                       # Clock period in ticks (Tick)
system.cpu0.numCycles                          585125                       # Number of cpu cycles simulated (Cycle)
system.cpu0.cpi                              4.812596                       # CPI: cycles per instruction (core level) ((Cycle/Count))
system.cpu0.ipc                              0.207788                       # IPC: instructions per cycle (core level) ((Count/Cycle))
system.cpu0.numWorkItemsStarted                     0                       # Number of work items this cpu started (Count)
system.cpu0.numWorkItemsCompleted                   0                       # Number of work items this cpu completed (Count)
system.cpu0.commitStats0.numInsts              121582                       # Number of instructions committed (thread level) (Count)
system.cpu0.commitStats0.numOps                221945                       # Number of ops (including micro ops) committed (thread level) (Count)
system.cpu0.commitStats0.numInstsNotNOP             0                       # Number of instructions committed excluding NOPs or prefetches (Count)
system.cpu0.commitStats0.numOpsNotNOP               0                       # Number of Ops (including micro ops) Simulated (Count)
system.cpu0.commitStats0.cpi                 4.812596                       # CPI: cycles per instruction (thread level) ((Cycle/Count))
system.cpu0.commitStats0.ipc                 0.207788                       # IPC: instructions per cycle (thread level) ((Count/Cycle))
system.cpu0.commitStats0.numMemRefs                 0                       # Number of memory references committed (Count)
system.cpu0.commitStats0.numFpInsts              1354                       # Number of float instructions (Count)
system.cpu0.commitStats0.numIntInsts           221084                       # Number of integer instructions (Count)
system.cpu0.commitStats0.numLoadInsts           11956                       # Number of load instructions (Count)
system.cpu0.commitStats0.numStoreInsts          12550                       # Number of store instructions (Count)
system.cpu0.commitStats0.numVecInsts                0                       # Number of vector instructions (Count)
system.cpu0.commitStats0.committedInstType::No_OpClass          209      0.09%      0.09% # Class of committed instruction. (Count)
system.cpu0.commitStats0.committedInstType::IntAlu       196643     88.60%     88.69% # Class of committed instruction. (Count)
system.cpu0.commitStats0.committedInstType::IntMult           13      0.01%     88.70% # Class of committed instruction. (Count)
system.cpu0.commitStats0.committedInstType::IntDiv           21      0.01%     88.71% # Class of committed instruction. (Count)
system.cpu0.commitStats0.committedInstType::FloatAdd          172      0.08%     88.79% # Class of committed instruction. (Count)
system.cpu0.commitStats0.committedInstType::FloatCmp            0      0.00%     88.79% # Class of committed instruction. (Count)
system.cpu0.commitStats0.committedInstType::FloatCvt            0      0.00%     88.79% # Class of committed instruction. (Count)
system.cpu0.commitStats0.committedInstType::FloatMult            0      0.00%     88.79% # Class of committed instruction. (Count)
system.cpu0.commitStats0.committedInstType::FloatMultAcc            0      0.00%     88.79% # Class of committed instruction. (Count)
system.cpu0.commitStats0.committedInstType::FloatDiv            0      0.00%     88.79% # Class of committed instruction. (Count)
system.cpu0.commitStats0.committedInstType::FloatMisc            0      0.00%     88.79% # Class of committed instruction. (Count)
system.cpu0.commitStats0.committedInstType::FloatSqrt            0      0.00%     88.79% # Class of committed instruction. (Count)
system.cpu0.commitStats0.committedInstType::SimdAdd            8      0.00%     88.79% # Class of committed instruction. (Count)
system.cpu0.commitStats0.committedInstType::SimdAddAcc            0      0.00%     88.79% # Class of committed instruction. (Count)
system.cpu0.commitStats0.committedInstType::SimdAlu           96      0.04%     88.83% # Class of committed instruction. (Count)
system.cpu0.commitStats0.committedInstType::SimdCmp            0      0.00%     88.83% # Class of committed instruction. (Count)
system.cpu0.commitStats0.committedInstType::SimdCvt           48      0.02%     88.86% # Class of committed instruction. (Count)
system.cpu0.commitStats0.committedInstType::SimdMisc          229      0.10%     88.96% # Class of committed instruction. (Count)
system.cpu0.commitStats0.committedInstType::SimdMult            0      0.00%     88.96% # Class of committed instruction. (Count)
system.cpu0.commitStats0.committedInstType::SimdMultAcc            0      0.00%     88.96% # Class of committed instruction. (Count)
system.cpu0.commitStats0.committedInstType::SimdMatMultAcc            0      0.00%     88.96% # Class of committed instruction. (Count)
system.cpu0.commitStats0.committedInstType::SimdShift            0      0.00%     88.96% # Class of committed instruction. (Count)
system.cpu0.commitStats0.committedInstType::SimdShiftAcc            0      0.00%     88.96% # Class of committed instruction. (Count)
system.cpu0.commitStats0.committedInstType::SimdDiv            0      0.00%     88.96% # Class of committed instruction. (Count)
system.cpu0.commitStats0.committedInstType::SimdSqrt            0      0.00%     88.96% # Class of committed instruction. (Count)
system.cpu0.commitStats0.committedInstType::SimdFloatAdd            0      0.00%     88.96% # Class of committed instruction. (Count)
system.cpu0.commitStats0.committedInstType::SimdFloatAlu            0      0.00%     88.96% # Class of committed instruction. (Count)
system.cpu0.commitStats0.committedInstType::SimdFloatCmp            0      0.00%     88.96% # Class of committed instruction. (Count)
system.cpu0.commitStats0.committedInstType::SimdFloatCvt            0      0.00%     88.96% # Class of committed instruction. (Count)
system.cpu0.commitStats0.committedInstType::SimdFloatDiv            0      0.00%     88.96% # Class of committed instruction. (Count)
system.cpu0.commitStats0.committedInstType::SimdFloatMisc            0      0.00%     88.96% # Class of committed instruction. (Count)
system.cpu0.commitStats0.committedInstType::SimdFloatMult            0      0.00%     88.96% # Class of committed instruction. (Count)
system.cpu0.commitStats0.committedInstType::SimdFloatMultAcc            0      0.00%     88.96% # Class of committed instruction. (Count)
system.cpu0.commitStats0.committedInstType::SimdFloatMatMultAcc            0      0.00%     88.96% # Class of committed instruction. (Count)
system.cpu0.commitStats0.committedInstType::SimdFloatSqrt            0      0.00%     88.96% # Class of committed instruction. (Count)
system.cpu0.commitStats0.committedInstType::SimdReduceAdd            0      0.00%     88.96% # Class of committed instruction. (Count)
system.cpu0.commitStats0.committedInstType::SimdReduceAlu            0      0.00%     88.96% # Class of committed instruction. (Count)
system.cpu0.commitStats0.committedInstType::SimdReduceCmp            0      0.00%     88.96% # Class of committed instruction. (Count)
system.cpu0.commitStats0.committedInstType::SimdFloatReduceAdd            0      0.00%     88.96% # Class of committed instruction. (Count)
system.cpu0.commitStats0.committedInstType::SimdFloatReduceCmp            0      0.00%     88.96% # Class of committed instruction. (Count)
system.cpu0.commitStats0.committedInstType::SimdAes            0      0.00%     88.96% # Class of committed instruction. (Count)
system.cpu0.commitStats0.committedInstType::SimdAesMix            0      0.00%     88.96% # Class of committed instruction. (Count)
system.cpu0.commitStats0.committedInstType::SimdSha1Hash            0      0.00%     88.96% # Class of committed instruction. (Count)
system.cpu0.commitStats0.committedInstType::SimdSha1Hash2            0      0.00%     88.96% # Class of committed instruction. (Count)
system.cpu0.commitStats0.committedInstType::SimdSha256Hash            0      0.00%     88.96% # Class of committed instruction. (Count)
system.cpu0.commitStats0.committedInstType::SimdSha256Hash2            0      0.00%     88.96% # Class of committed instruction. (Count)
system.cpu0.commitStats0.committedInstType::SimdShaSigma2            0      0.00%     88.96% # Class of committed instruction. (Count)
system.cpu0.commitStats0.committedInstType::SimdShaSigma3            0      0.00%     88.96% # Class of committed instruction. (Count)
system.cpu0.commitStats0.committedInstType::SimdPredAlu            0      0.00%     88.96% # Class of committed instruction. (Count)
system.cpu0.commitStats0.committedInstType::Matrix            0      0.00%     88.96% # Class of committed instruction. (Count)
system.cpu0.commitStats0.committedInstType::MatrixMov            0      0.00%     88.96% # Class of committed instruction. (Count)
system.cpu0.commitStats0.committedInstType::MatrixOP            0      0.00%     88.96% # Class of committed instruction. (Count)
system.cpu0.commitStats0.committedInstType::MemRead        11835      5.33%     94.29% # Class of committed instruction. (Count)
system.cpu0.commitStats0.committedInstType::MemWrite        12027      5.42%     99.71% # Class of committed instruction. (Count)
system.cpu0.commitStats0.committedInstType::FloatMemRead          121      0.05%     99.76% # Class of committed instruction. (Count)
system.cpu0.commitStats0.committedInstType::FloatMemWrite          523      0.24%    100.00% # Class of committed instruction. (Count)
system.cpu0.commitStats0.committedInstType::IprAccess            0      0.00%    100.00% # Class of committed instruction. (Count)
system.cpu0.commitStats0.committedInstType::InstPrefetch            0      0.00%    100.00% # Class of committed instruction. (Count)
system.cpu0.commitStats0.committedInstType::SimdUnitStrideLoad            0      0.00%    100.00% # Class of committed instruction. (Count)
system.cpu0.commitStats0.committedInstType::SimdUnitStrideStore            0      0.00%    100.00% # Class of committed instruction. (Count)
system.cpu0.commitStats0.committedInstType::SimdUnitStrideMaskLoad            0      0.00%    100.00% # Class of committed instruction. (Count)
system.cpu0.commitStats0.committedInstType::SimdUnitStrideMaskStore            0      0.00%    100.00% # Class of committed instruction. (Count)
system.cpu0.commitStats0.committedInstType::SimdStridedLoad            0      0.00%    100.00% # Class of committed instruction. (Count)
system.cpu0.commitStats0.committedInstType::SimdStridedStore            0      0.00%    100.00% # Class of committed instruction. (Count)
system.cpu0.commitStats0.committedInstType::SimdIndexedLoad            0      0.00%    100.00% # Class of committed instruction. (Count)
system.cpu0.commitStats0.committedInstType::SimdIndexedStore            0      0.00%    100.00% # Class of committed instruction. (Count)
system.cpu0.commitStats0.committedInstType::SimdWholeRegisterLoad            0      0.00%    100.00% # Class of committed instruction. (Count)
system.cpu0.commitStats0.committedInstType::SimdWholeRegisterStore            0      0.00%    100.00% # Class of committed instruction. (Count)
system.cpu0.commitStats0.committedInstType::SimdUnitStrideFaultOnlyFirstLoad            0      0.00%    100.00% # Class of committed instruction. (Count)
system.cpu0.commitStats0.committedInstType::SimdUnitStrideSegmentedLoad            0      0.00%    100.00% # Class of committed instruction. (Count)
system.cpu0.commitStats0.committedInstType::SimdUnitStrideSegmentedStore            0      0.00%    100.00% # Class of committed instruction. (Count)
system.cpu0.commitStats0.committedInstType::SimdUnitStrideSegmentedFaultOnlyFirstLoad            0      0.00%    100.00% # Class of committed instruction. (Count)
system.cpu0.commitStats0.committedInstType::SimdStrideSegmentedLoad            0      0.00%    100.00% # Class of committed instruction. (Count)
system.cpu0.commitStats0.committedInstType::SimdStrideSegmentedStore            0      0.00%    100.00% # Class of committed instruction. (Count)
system.cpu0.commitStats0.committedInstType::SimdExt            0      0.00%    100.00% # Class of committed instruction. (Count)
system.cpu0.commitStats0.committedInstType::SimdFloatExt            0      0.00%    100.00% # Class of committed instruction. (Count)
system.cpu0.commitStats0.committedInstType::SimdConfig            0      0.00%    100.00% # Class of committed instruction. (Count)
system.cpu0.commitStats0.committedInstType::total       221945                       # Class of committed instruction. (Count)
system.cpu0.commitStats0.committedControl::IsControl        42173                       # Class of control type instructions committed (Count)
system.cpu0.commitStats0.committedControl::IsDirectControl        41925                       # Class of control type instructions committed (Count)
system.cpu0.commitStats0.committedControl::IsIndirectControl          248                       # Class of control type instructions committed (Count)
system.cpu0.commitStats0.committedControl::IsCondControl        31636                       # Class of control type instructions committed (Count)
system.cpu0.commitStats0.committedControl::IsUncondControl        10537                       # Class of control type instructions committed (Count)
system.cpu0.commitStats0.committedControl::IsCall          180                       # Class of control type instructions committed (Count)
system.cpu0.commitStats0.committedControl::IsReturn          175                       # Class of control type instructions committed (Count)
system.cpu0.exec_context.thread_0.numMatAluAccesses            0                       # Number of matrix alu accesses (Count)
system.cpu0.exec_context.thread_0.numCallsReturns          355                       # Number of times a function call or return occured (Count)
system.cpu0.exec_context.thread_0.numMatInsts            0                       # Number of matrix instructions (Count)
system.cpu0.exec_context.thread_0.numIdleCycles   106.982436                       # Number of idle cycles (Cycle)
system.cpu0.exec_context.thread_0.numBusyCycles 585018.017564                       # Number of busy cycles (Cycle)
system.cpu0.exec_context.thread_0.notIdleFraction     0.999817                       # Percentage of non-idle cycles (Ratio)
system.cpu0.exec_context.thread_0.idleFraction     0.000183                       # Percentage of idle cycles (Ratio)
system.cpu0.executeStats0.numInsts                  0                       # Number of executed instructions (Count)
system.cpu0.executeStats0.numNop                    0                       # Number of nop insts executed (Count)
system.cpu0.executeStats0.numBranches               0                       # Number of branches executed (Count)
system.cpu0.executeStats0.numLoadInsts              0                       # Number of load instructions executed (Count)
system.cpu0.executeStats0.numStoreInsts         24506                       # Number of stores executed (Count)
system.cpu0.executeStats0.instRate                  0                       # Inst execution rate ((Count/Cycle))
system.cpu0.executeStats0.numFpAluAccesses         1354                       # Number of float alu accesses (Count)
system.cpu0.executeStats0.numFpRegReads          1462                       # Number of times the floating registers were read (Count)
system.cpu0.executeStats0.numFpRegWrites          785                       # Number of times the floating registers were written (Count)
system.cpu0.executeStats0.numIntAluAccesses       221084                       # Number of integer alu accesses (Count)
system.cpu0.executeStats0.numIntRegReads       223690                       # Number of times the integer registers were read (Count)
system.cpu0.executeStats0.numIntRegWrites       134756                       # Number of times the integer registers were written (Count)
system.cpu0.executeStats0.numMemRefs            24506                       # Number of memory refs (Count)
system.cpu0.executeStats0.numMiscRegReads       109067                       # Number of times the Misc registers were read (Count)
system.cpu0.executeStats0.numVecAluAccesses            0                       # Number of vector alu accesses (Count)
system.cpu0.executeStats0.numDiscardedOps            0                       # Number of ops (including micro ops) which were discarded before commit (Count)
system.cpu0.fetchStats0.numInsts               121582                       # Number of instructions fetched (thread level) (Count)
system.cpu0.fetchStats0.numOps                 221945                       # Number of ops (including micro ops) fetched (thread level) (Count)
system.cpu0.fetchStats0.fetchRate            0.207788                       # Number of inst fetches per cycle ((Count/Cycle))
system.cpu0.fetchStats0.numBranches             42173                       # Number of branches fetched (Count)
system.cpu0.fetchStats0.branchRate           0.072075                       # Number of branch fetches per cycle (Ratio)
system.cpu0.fetchStats0.numFetchSuspends            0                       # Number of times Execute suspended instruction fetching (Count)
system.cpu0.interrupts.clk_domain.clock          8000                       # Clock period in ticks (Tick)
system.cpu0.mmu.dtb.rdAccesses                  11960                       # TLB accesses on read requests (Count)
system.cpu0.mmu.dtb.wrAccesses                  12550                       # TLB accesses on write requests (Count)
system.cpu0.mmu.dtb.rdMisses                       15                       # TLB misses on read requests (Count)
system.cpu0.mmu.dtb.wrMisses                       11                       # TLB misses on write requests (Count)
system.cpu0.mmu.dtb.walker.power_state.pwrStateResidencyTicks::UNDEFINED    292616000                       # Cumulative time (in ticks) in various power states (Tick)
system.cpu0.mmu.itb.rdAccesses                      0                       # TLB accesses on read requests (Count)
system.cpu0.mmu.itb.wrAccesses                 175992                       # TLB accesses on write requests (Count)
system.cpu0.mmu.itb.rdMisses                        0                       # TLB misses on read requests (Count)
system.cpu0.mmu.itb.wrMisses                       46                       # TLB misses on write requests (Count)
system.cpu0.mmu.itb.walker.power_state.pwrStateResidencyTicks::UNDEFINED    292616000                       # Cumulative time (in ticks) in various power states (Tick)
system.cpu0.power_state.pwrStateResidencyTicks::ON    292616000                       # Cumulative time (in ticks) in various power states (Tick)
system.cpu0.thread_0.numInsts                       0                       # Number of Instructions committed (Count)
system.cpu0.thread_0.numOps                         0                       # Number of Ops committed (Count)
system.cpu0.thread_0.numMemRefs                     0                       # Number of Memory References (Count)
system.cpu0.workload.numSyscalls                   15                       # Number of system calls (Count)
system.cpu1.numCycles                          585232                       # Number of cpu cycles simulated (Cycle)
system.cpu1.cpi                              4.594740                       # CPI: cycles per instruction (core level) ((Cycle/Count))
system.cpu1.ipc                              0.217640                       # IPC: instructions per cycle (core level) ((Count/Cycle))
system.cpu1.numWorkItemsStarted                     0                       # Number of work items this cpu started (Count)
system.cpu1.numWorkItemsCompleted                   0                       # Number of work items this cpu completed (Count)
system.cpu1.commitStats0.numInsts              127370                       # Number of instructions committed (thread level) (Count)
system.cpu1.commitStats0.numOps                236377                       # Number of ops (including micro ops) committed (thread level) (Count)
system.cpu1.commitStats0.numInstsNotNOP             0                       # Number of instructions committed excluding NOPs or prefetches (Count)
system.cpu1.commitStats0.numOpsNotNOP               0                       # Number of Ops (including micro ops) Simulated (Count)
system.cpu1.commitStats0.cpi                 4.594740                       # CPI: cycles per instruction (thread level) ((Cycle/Count))
system.cpu1.commitStats0.ipc                 0.217640                       # IPC: instructions per cycle (thread level) ((Count/Cycle))
system.cpu1.commitStats0.numMemRefs                 0                       # Number of memory references committed (Count)
system.cpu1.commitStats0.numFpInsts              1354                       # Number of float instructions (Count)
system.cpu1.commitStats0.numIntInsts           235516                       # Number of integer instructions (Count)
system.cpu1.commitStats0.numLoadInsts           14355                       # Number of load instructions (Count)
system.cpu1.commitStats0.numStoreInsts          11893                       # Number of store instructions (Count)
system.cpu1.commitStats0.numVecInsts                0                       # Number of vector instructions (Count)
system.cpu1.commitStats0.committedInstType::No_OpClass          210      0.09%      0.09% # Class of committed instruction. (Count)
system.cpu1.commitStats0.committedInstType::IntAlu       209332     88.56%     88.65% # Class of committed instruction. (Count)
system.cpu1.commitStats0.committedInstType::IntMult           13      0.01%     88.65% # Class of committed instruction. (Count)
system.cpu1.commitStats0.committedInstType::IntDiv           21      0.01%     88.66% # Class of committed instruction. (Count)
system.cpu1.commitStats0.committedInstType::FloatAdd          172      0.07%     88.73% # Class of committed instruction. (Count)
system.cpu1.commitStats0.committedInstType::FloatCmp            0      0.00%     88.73% # Class of committed instruction. (Count)
system.cpu1.commitStats0.committedInstType::FloatCvt            0      0.00%     88.73% # Class of committed instruction. (Count)
system.cpu1.commitStats0.committedInstType::FloatMult            0      0.00%     88.73% # Class of committed instruction. (Count)
system.cpu1.commitStats0.committedInstType::FloatMultAcc            0      0.00%     88.73% # Class of committed instruction. (Count)
system.cpu1.commitStats0.committedInstType::FloatDiv            0      0.00%     88.73% # Class of committed instruction. (Count)
system.cpu1.commitStats0.committedInstType::FloatMisc            0      0.00%     88.73% # Class of committed instruction. (Count)
system.cpu1.commitStats0.committedInstType::FloatSqrt            0      0.00%     88.73% # Class of committed instruction. (Count)
system.cpu1.commitStats0.committedInstType::SimdAdd            8      0.00%     88.74% # Class of committed instruction. (Count)
system.cpu1.commitStats0.committedInstType::SimdAddAcc            0      0.00%     88.74% # Class of committed instruction. (Count)
system.cpu1.commitStats0.committedInstType::SimdAlu           96      0.04%     88.78% # Class of committed instruction. (Count)
system.cpu1.commitStats0.committedInstType::SimdCmp            0      0.00%     88.78% # Class of committed instruction. (Count)
system.cpu1.commitStats0.committedInstType::SimdCvt           48      0.02%     88.80% # Class of committed instruction. (Count)
system.cpu1.commitStats0.committedInstType::SimdMisc          229      0.10%     88.90% # Class of committed instruction. (Count)
system.cpu1.commitStats0.committedInstType::SimdMult            0      0.00%     88.90% # Class of committed instruction. (Count)
system.cpu1.commitStats0.committedInstType::SimdMultAcc            0      0.00%     88.90% # Class of committed instruction. (Count)
system.cpu1.commitStats0.committedInstType::SimdMatMultAcc            0      0.00%     88.90% # Class of committed instruction. (Count)
system.cpu1.commitStats0.committedInstType::SimdShift            0      0.00%     88.90% # Class of committed instruction. (Count)
system.cpu1.commitStats0.committedInstType::SimdShiftAcc            0      0.00%     88.90% # Class of committed instruction. (Count)
system.cpu1.commitStats0.committedInstType::SimdDiv            0      0.00%     88.90% # Class of committed instruction. (Count)
system.cpu1.commitStats0.committedInstType::SimdSqrt            0      0.00%     88.90% # Class of committed instruction. (Count)
system.cpu1.commitStats0.committedInstType::SimdFloatAdd            0      0.00%     88.90% # Class of committed instruction. (Count)
system.cpu1.commitStats0.committedInstType::SimdFloatAlu            0      0.00%     88.90% # Class of committed instruction. (Count)
system.cpu1.commitStats0.committedInstType::SimdFloatCmp            0      0.00%     88.90% # Class of committed instruction. (Count)
system.cpu1.commitStats0.committedInstType::SimdFloatCvt            0      0.00%     88.90% # Class of committed instruction. (Count)
system.cpu1.commitStats0.committedInstType::SimdFloatDiv            0      0.00%     88.90% # Class of committed instruction. (Count)
system.cpu1.commitStats0.committedInstType::SimdFloatMisc            0      0.00%     88.90% # Class of committed instruction. (Count)
system.cpu1.commitStats0.committedInstType::SimdFloatMult            0      0.00%     88.90% # Class of committed instruction. (Count)
system.cpu1.commitStats0.committedInstType::SimdFloatMultAcc            0      0.00%     88.90% # Class of committed instruction. (Count)
system.cpu1.commitStats0.committedInstType::SimdFloatMatMultAcc            0      0.00%     88.90% # Class of committed instruction. (Count)
system.cpu1.commitStats0.committedInstType::SimdFloatSqrt            0      0.00%     88.90% # Class of committed instruction. (Count)
system.cpu1.commitStats0.committedInstType::SimdReduceAdd            0      0.00%     88.90% # Class of committed instruction. (Count)
system.cpu1.commitStats0.committedInstType::SimdReduceAlu            0      0.00%     88.90% # Class of committed instruction. (Count)
system.cpu1.commitStats0.committedInstType::SimdReduceCmp            0      0.00%     88.90% # Class of committed instruction. (Count)
system.cpu1.commitStats0.committedInstType::SimdFloatReduceAdd            0      0.00%     88.90% # Class of committed instruction. (Count)
system.cpu1.commitStats0.committedInstType::SimdFloatReduceCmp            0      0.00%     88.90% # Class of committed instruction. (Count)
system.cpu1.commitStats0.committedInstType::SimdAes            0      0.00%     88.90% # Class of committed instruction. (Count)
system.cpu1.commitStats0.committedInstType::SimdAesMix            0      0.00%     88.90% # Class of committed instruction. (Count)
system.cpu1.commitStats0.committedInstType::SimdSha1Hash            0      0.00%     88.90% # Class of committed instruction. (Count)
system.cpu1.commitStats0.committedInstType::SimdSha1Hash2            0      0.00%     88.90% # Class of committed instruction. (Count)
system.cpu1.commitStats0.committedInstType::SimdSha256Hash            0      0.00%     88.90% # Class of committed instruction. (Count)
system.cpu1.commitStats0.committedInstType::SimdSha256Hash2            0      0.00%     88.90% # Class of committed instruction. (Count)
system.cpu1.commitStats0.committedInstType::SimdShaSigma2            0      0.00%     88.90% # Class of committed instruction. (Count)
system.cpu1.commitStats0.committedInstType::SimdShaSigma3            0      0.00%     88.90% # Class of committed instruction. (Count)
system.cpu1.commitStats0.committedInstType::SimdPredAlu            0      0.00%     88.90% # Class of committed instruction. (Count)
system.cpu1.commitStats0.committedInstType::Matrix            0      0.00%     88.90% # Class of committed instruction. (Count)
system.cpu1.commitStats0.committedInstType::MatrixMov            0      0.00%     88.90% # Class of committed instruction. (Count)
system.cpu1.commitStats0.committedInstType::MatrixOP            0      0.00%     88.90% # Class of committed instruction. (Count)
system.cpu1.commitStats0.committedInstType::MemRead        14234      6.02%     94.92% # Class of committed instruction. (Count)
system.cpu1.commitStats0.committedInstType::MemWrite        11370      4.81%     99.73% # Class of committed instruction. (Count)
system.cpu1.commitStats0.committedInstType::FloatMemRead          121      0.05%     99.78% # Class of committed instruction. (Count)
system.cpu1.commitStats0.committedInstType::FloatMemWrite          523      0.22%    100.00% # Class of committed instruction. (Count)
system.cpu1.commitStats0.committedInstType::IprAccess            0      0.00%    100.00% # Class of committed instruction. (Count)
system.cpu1.commitStats0.committedInstType::InstPrefetch            0      0.00%    100.00% # Class of committed instruction. (Count)
system.cpu1.commitStats0.committedInstType::SimdUnitStrideLoad            0      0.00%    100.00% # Class of committed instruction. (Count)
system.cpu1.commitStats0.committedInstType::SimdUnitStrideStore            0      0.00%    100.00% # Class of committed instruction. (Count)
system.cpu1.commitStats0.committedInstType::SimdUnitStrideMaskLoad            0      0.00%    100.00% # Class of committed instruction. (Count)
system.cpu1.commitStats0.committedInstType::SimdUnitStrideMaskStore            0      0.00%    100.00% # Class of committed instruction. (Count)
system.cpu1.commitStats0.committedInstType::SimdStridedLoad            0      0.00%    100.00% # Class of committed instruction. (Count)
system.cpu1.commitStats0.committedInstType::SimdStridedStore            0      0.00%    100.00% # Class of committed instruction. (Count)
system.cpu1.commitStats0.committedInstType::SimdIndexedLoad            0      0.00%    100.00% # Class of committed instruction. (Count)
system.cpu1.commitStats0.committedInstType::SimdIndexedStore            0      0.00%    100.00% # Class of committed instruction. (Count)
system.cpu1.commitStats0.committedInstType::SimdWholeRegisterLoad            0      0.00%    100.00% # Class of committed instruction. (Count)
system.cpu1.commitStats0.committedInstType::SimdWholeRegisterStore            0      0.00%    100.00% # Class of committed instruction. (Count)
system.cpu1.commitStats0.committedInstType::SimdUnitStrideFaultOnlyFirstLoad            0      0.00%    100.00% # Class of committed instruction. (Count)
system.cpu1.commitStats0.committedInstType::SimdUnitStrideSegmentedLoad            0      0.00%    100.00% # Class of committed instruction. (Count)
system.cpu1.commitStats0.committedInstType::SimdUnitStrideSegmentedStore            0      0.00%    100.00% # Class of committed instruction. (Count)
system.cpu1.commitStats0.committedInstType::SimdUnitStrideSegmentedFaultOnlyFirstLoad            0      0.00%    100.00% # Class of committed instruction. (Count)
system.cpu1.commitStats0.committedInstType::SimdStrideSegmentedLoad            0      0.00%    100.00% # Class of committed instruction. (Count)
system.cpu1.commitStats0.committedInstType::SimdStrideSegmentedStore            0      0.00%    100.00% # Class of committed instruction. (Count)
system.cpu1.commitStats0.committedInstType::SimdExt            0      0.00%    100.00% # Class of committed instruction. (Count)
system.cpu1.commitStats0.committedInstType::SimdFloatExt            0      0.00%    100.00% # Class of committed instruction. (Count)
system.cpu1.commitStats0.committedInstType::SimdConfig            0      0.00%    100.00% # Class of committed instruction. (Count)
system.cpu1.commitStats0.committedInstType::total       236377                       # Class of committed instruction. (Count)
system.cpu1.commitStats0.committedControl::IsControl        44515                       # Class of control type instructions committed (Count)
system.cpu1.commitStats0.committedControl::IsDirectControl        44267                       # Class of control type instructions committed (Count)
system.cpu1.commitStats0.committedControl::IsIndirectControl          248                       # Class of control type instructions committed (Count)
system.cpu1.commitStats0.committedControl::IsCondControl        33979                       # Class of control type instructions committed (Count)
system.cpu1.commitStats0.committedControl::IsUncondControl        10536                       # Class of control type instructions committed (Count)
system.cpu1.commitStats0.committedControl::IsCall          180                       # Class of control type instructions committed (Count)
system.cpu1.commitStats0.committedControl::IsReturn          175                       # Class of control type instructions committed (Count)
system.cpu1.exec_context.thread_0.numMatAluAccesses            0                       # Number of matrix alu accesses (Count)
system.cpu1.exec_context.thread_0.numCallsReturns          355                       # Number of times a function call or return occured (Count)
system.cpu1.exec_context.thread_0.numMatInsts            0                       # Number of matrix instructions (Count)
system.cpu1.exec_context.thread_0.numIdleCycles     0.002000                       # Number of idle cycles (Cycle)
system.cpu1.exec_context.thread_0.numBusyCycles 585231.998000                       # Number of busy cycles (Cycle)
system.cpu1.exec_context.thread_0.notIdleFraction     1.000000                       # Percentage of non-idle cycles (Ratio)
system.cpu1.exec_context.thread_0.idleFraction     0.000000                       # Percentage of idle cycles (Ratio)
system.cpu1.executeStats0.numInsts                  0                       # Number of executed instructions (Count)
system.cpu1.executeStats0.numNop                    0                       # Number of nop insts executed (Count)
system.cpu1.executeStats0.numBranches               0                       # Number of branches executed (Count)
system.cpu1.executeStats0.numLoadInsts              0                       # Number of load instructions executed (Count)
system.cpu1.executeStats0.numStoreInsts         26248                       # Number of stores executed (Count)
system.cpu1.executeStats0.instRate                  0                       # Inst execution rate ((Count/Cycle))
system.cpu1.executeStats0.numFpAluAccesses         1354                       # Number of float alu accesses (Count)
system.cpu1.executeStats0.numFpRegReads          1462                       # Number of times the floating registers were read (Count)
system.cpu1.executeStats0.numFpRegWrites          785                       # Number of times the floating registers were written (Count)
system.cpu1.executeStats0.numIntAluAccesses       235516                       # Number of integer alu accesses (Count)
system.cpu1.executeStats0.numIntRegReads       232863                       # Number of times the integer registers were read (Count)
system.cpu1.executeStats0.numIntRegWrites       145161                       # Number of times the integer registers were written (Count)
system.cpu1.executeStats0.numMemRefs            26248                       # Number of memory refs (Count)
system.cpu1.executeStats0.numMiscRegReads       115493                       # Number of times the Misc registers were read (Count)
system.cpu1.executeStats0.numVecAluAccesses            0                       # Number of vector alu accesses (Count)
system.cpu1.executeStats0.numDiscardedOps            0                       # Number of ops (including micro ops) which were discarded before commit (Count)
system.cpu1.fetchStats0.numInsts               127370                       # Number of instructions fetched (thread level) (Count)
system.cpu1.fetchStats0.numOps                 236377                       # Number of ops (including micro ops) fetched (thread level) (Count)
system.cpu1.fetchStats0.fetchRate            0.217640                       # Number of inst fetches per cycle ((Count/Cycle))
system.cpu1.fetchStats0.numBranches             44515                       # Number of branches fetched (Count)
system.cpu1.fetchStats0.branchRate           0.076064                       # Number of branch fetches per cycle (Ratio)
system.cpu1.fetchStats0.numFetchSuspends            0                       # Number of times Execute suspended instruction fetching (Count)
system.cpu1.interrupts.clk_domain.clock          8000                       # Clock period in ticks (Tick)
system.cpu1.mmu.dtb.rdAccesses                  14359                       # TLB accesses on read requests (Count)
system.cpu1.mmu.dtb.wrAccesses                  11893                       # TLB accesses on write requests (Count)
system.cpu1.mmu.dtb.rdMisses                       17                       # TLB misses on read requests (Count)
system.cpu1.mmu.dtb.wrMisses                        9                       # TLB misses on write requests (Count)
system.cpu1.mmu.dtb.walker.power_state.pwrStateResidencyTicks::UNDEFINED    292616000                       # Cumulative time (in ticks) in various power states (Tick)
system.cpu1.mmu.itb.rdAccesses                      0                       # TLB accesses on read requests (Count)
system.cpu1.mmu.itb.wrAccesses                 183143                       # TLB accesses on write requests (Count)
system.cpu1.mmu.itb.rdMisses                        0                       # TLB misses on read requests (Count)
system.cpu1.mmu.itb.wrMisses                       46                       # TLB misses on write requests (Count)
system.cpu1.mmu.itb.walker.power_state.pwrStateResidencyTicks::UNDEFINED    292616000                       # Cumulative time (in ticks) in various power states (Tick)
system.cpu1.power_state.pwrStateResidencyTicks::ON    292616000                       # Cumulative time (in ticks) in various power states (Tick)
system.cpu1.thread_0.numInsts                       0                       # Number of Instructions committed (Count)
system.cpu1.thread_0.numOps                         0                       # Number of Ops committed (Count)
system.cpu1.thread_0.numMemRefs                     0                       # Number of Memory References (Count)
system.cpu1.workload.numSyscalls                   15                       # Number of system calls (Count)
system.cpu10.numCycles                         584810                       # Number of cpu cycles simulated (Cycle)
system.cpu10.cpi                             4.639140                       # CPI: cycles per instruction (core level) ((Cycle/Count))
system.cpu10.ipc                             0.215557                       # IPC: instructions per cycle (core level) ((Count/Cycle))
system.cpu10.numWorkItemsStarted                    0                       # Number of work items this cpu started (Count)
system.cpu10.numWorkItemsCompleted                  0                       # Number of work items this cpu completed (Count)
system.cpu10.commitStats0.numInsts             126060                       # Number of instructions committed (thread level) (Count)
system.cpu10.commitStats0.numOps               233313                       # Number of ops (including micro ops) committed (thread level) (Count)
system.cpu10.commitStats0.numInstsNotNOP            0                       # Number of instructions committed excluding NOPs or prefetches (Count)
system.cpu10.commitStats0.numOpsNotNOP              0                       # Number of Ops (including micro ops) Simulated (Count)
system.cpu10.commitStats0.cpi                4.639140                       # CPI: cycles per instruction (thread level) ((Cycle/Count))
system.cpu10.commitStats0.ipc                0.215557                       # IPC: instructions per cycle (thread level) ((Count/Cycle))
system.cpu10.commitStats0.numMemRefs                0                       # Number of memory references committed (Count)
system.cpu10.commitStats0.numFpInsts             1354                       # Number of float instructions (Count)
system.cpu10.commitStats0.numIntInsts          232452                       # Number of integer instructions (Count)
system.cpu10.commitStats0.numLoadInsts          13915                       # Number of load instructions (Count)
system.cpu10.commitStats0.numStoreInsts         11893                       # Number of store instructions (Count)
system.cpu10.commitStats0.numVecInsts               0                       # Number of vector instructions (Count)
system.cpu10.commitStats0.committedInstType::No_OpClass          210      0.09%      0.09% # Class of committed instruction. (Count)
system.cpu10.commitStats0.committedInstType::IntAlu       206707     88.60%     88.69% # Class of committed instruction. (Count)
system.cpu10.commitStats0.committedInstType::IntMult           14      0.01%     88.69% # Class of committed instruction. (Count)
system.cpu10.commitStats0.committedInstType::IntDiv           21      0.01%     88.70% # Class of committed instruction. (Count)
system.cpu10.commitStats0.committedInstType::FloatAdd          172      0.07%     88.78% # Class of committed instruction. (Count)
system.cpu10.commitStats0.committedInstType::FloatCmp            0      0.00%     88.78% # Class of committed instruction. (Count)
system.cpu10.commitStats0.committedInstType::FloatCvt            0      0.00%     88.78% # Class of committed instruction. (Count)
system.cpu10.commitStats0.committedInstType::FloatMult            0      0.00%     88.78% # Class of committed instruction. (Count)
system.cpu10.commitStats0.committedInstType::FloatMultAcc            0      0.00%     88.78% # Class of committed instruction. (Count)
system.cpu10.commitStats0.committedInstType::FloatDiv            0      0.00%     88.78% # Class of committed instruction. (Count)
system.cpu10.commitStats0.committedInstType::FloatMisc            0      0.00%     88.78% # Class of committed instruction. (Count)
system.cpu10.commitStats0.committedInstType::FloatSqrt            0      0.00%     88.78% # Class of committed instruction. (Count)
system.cpu10.commitStats0.committedInstType::SimdAdd            8      0.00%     88.78% # Class of committed instruction. (Count)
system.cpu10.commitStats0.committedInstType::SimdAddAcc            0      0.00%     88.78% # Class of committed instruction. (Count)
system.cpu10.commitStats0.committedInstType::SimdAlu           96      0.04%     88.82% # Class of committed instruction. (Count)
system.cpu10.commitStats0.committedInstType::SimdCmp            0      0.00%     88.82% # Class of committed instruction. (Count)
system.cpu10.commitStats0.committedInstType::SimdCvt           48      0.02%     88.84% # Class of committed instruction. (Count)
system.cpu10.commitStats0.committedInstType::SimdMisc          229      0.10%     88.94% # Class of committed instruction. (Count)
system.cpu10.commitStats0.committedInstType::SimdMult            0      0.00%     88.94% # Class of committed instruction. (Count)
system.cpu10.commitStats0.committedInstType::SimdMultAcc            0      0.00%     88.94% # Class of committed instruction. (Count)
system.cpu10.commitStats0.committedInstType::SimdMatMultAcc            0      0.00%     88.94% # Class of committed instruction. (Count)
system.cpu10.commitStats0.committedInstType::SimdShift            0      0.00%     88.94% # Class of committed instruction. (Count)
system.cpu10.commitStats0.committedInstType::SimdShiftAcc            0      0.00%     88.94% # Class of committed instruction. (Count)
system.cpu10.commitStats0.committedInstType::SimdDiv            0      0.00%     88.94% # Class of committed instruction. (Count)
system.cpu10.commitStats0.committedInstType::SimdSqrt            0      0.00%     88.94% # Class of committed instruction. (Count)
system.cpu10.commitStats0.committedInstType::SimdFloatAdd            0      0.00%     88.94% # Class of committed instruction. (Count)
system.cpu10.commitStats0.committedInstType::SimdFloatAlu            0      0.00%     88.94% # Class of committed instruction. (Count)
system.cpu10.commitStats0.committedInstType::SimdFloatCmp            0      0.00%     88.94% # Class of committed instruction. (Count)
system.cpu10.commitStats0.committedInstType::SimdFloatCvt            0      0.00%     88.94% # Class of committed instruction. (Count)
system.cpu10.commitStats0.committedInstType::SimdFloatDiv            0      0.00%     88.94% # Class of committed instruction. (Count)
system.cpu10.commitStats0.committedInstType::SimdFloatMisc            0      0.00%     88.94% # Class of committed instruction. (Count)
system.cpu10.commitStats0.committedInstType::SimdFloatMult            0      0.00%     88.94% # Class of committed instruction. (Count)
system.cpu10.commitStats0.committedInstType::SimdFloatMultAcc            0      0.00%     88.94% # Class of committed instruction. (Count)
system.cpu10.commitStats0.committedInstType::SimdFloatMatMultAcc            0      0.00%     88.94% # Class of committed instruction. (Count)
system.cpu10.commitStats0.committedInstType::SimdFloatSqrt            0      0.00%     88.94% # Class of committed instruction. (Count)
system.cpu10.commitStats0.committedInstType::SimdReduceAdd            0      0.00%     88.94% # Class of committed instruction. (Count)
system.cpu10.commitStats0.committedInstType::SimdReduceAlu            0      0.00%     88.94% # Class of committed instruction. (Count)
system.cpu10.commitStats0.committedInstType::SimdReduceCmp            0      0.00%     88.94% # Class of committed instruction. (Count)
system.cpu10.commitStats0.committedInstType::SimdFloatReduceAdd            0      0.00%     88.94% # Class of committed instruction. (Count)
system.cpu10.commitStats0.committedInstType::SimdFloatReduceCmp            0      0.00%     88.94% # Class of committed instruction. (Count)
system.cpu10.commitStats0.committedInstType::SimdAes            0      0.00%     88.94% # Class of committed instruction. (Count)
system.cpu10.commitStats0.committedInstType::SimdAesMix            0      0.00%     88.94% # Class of committed instruction. (Count)
system.cpu10.commitStats0.committedInstType::SimdSha1Hash            0      0.00%     88.94% # Class of committed instruction. (Count)
system.cpu10.commitStats0.committedInstType::SimdSha1Hash2            0      0.00%     88.94% # Class of committed instruction. (Count)
system.cpu10.commitStats0.committedInstType::SimdSha256Hash            0      0.00%     88.94% # Class of committed instruction. (Count)
system.cpu10.commitStats0.committedInstType::SimdSha256Hash2            0      0.00%     88.94% # Class of committed instruction. (Count)
system.cpu10.commitStats0.committedInstType::SimdShaSigma2            0      0.00%     88.94% # Class of committed instruction. (Count)
system.cpu10.commitStats0.committedInstType::SimdShaSigma3            0      0.00%     88.94% # Class of committed instruction. (Count)
system.cpu10.commitStats0.committedInstType::SimdPredAlu            0      0.00%     88.94% # Class of committed instruction. (Count)
system.cpu10.commitStats0.committedInstType::Matrix            0      0.00%     88.94% # Class of committed instruction. (Count)
system.cpu10.commitStats0.committedInstType::MatrixMov            0      0.00%     88.94% # Class of committed instruction. (Count)
system.cpu10.commitStats0.committedInstType::MatrixOP            0      0.00%     88.94% # Class of committed instruction. (Count)
system.cpu10.commitStats0.committedInstType::MemRead        13794      5.91%     94.85% # Class of committed instruction. (Count)
system.cpu10.commitStats0.committedInstType::MemWrite        11370      4.87%     99.72% # Class of committed instruction. (Count)
system.cpu10.commitStats0.committedInstType::FloatMemRead          121      0.05%     99.78% # Class of committed instruction. (Count)
system.cpu10.commitStats0.committedInstType::FloatMemWrite          523      0.22%    100.00% # Class of committed instruction. (Count)
system.cpu10.commitStats0.committedInstType::IprAccess            0      0.00%    100.00% # Class of committed instruction. (Count)
system.cpu10.commitStats0.committedInstType::InstPrefetch            0      0.00%    100.00% # Class of committed instruction. (Count)
system.cpu10.commitStats0.committedInstType::SimdUnitStrideLoad            0      0.00%    100.00% # Class of committed instruction. (Count)
system.cpu10.commitStats0.committedInstType::SimdUnitStrideStore            0      0.00%    100.00% # Class of committed instruction. (Count)
system.cpu10.commitStats0.committedInstType::SimdUnitStrideMaskLoad            0      0.00%    100.00% # Class of committed instruction. (Count)
system.cpu10.commitStats0.committedInstType::SimdUnitStrideMaskStore            0      0.00%    100.00% # Class of committed instruction. (Count)
system.cpu10.commitStats0.committedInstType::SimdStridedLoad            0      0.00%    100.00% # Class of committed instruction. (Count)
system.cpu10.commitStats0.committedInstType::SimdStridedStore            0      0.00%    100.00% # Class of committed instruction. (Count)
system.cpu10.commitStats0.committedInstType::SimdIndexedLoad            0      0.00%    100.00% # Class of committed instruction. (Count)
system.cpu10.commitStats0.committedInstType::SimdIndexedStore            0      0.00%    100.00% # Class of committed instruction. (Count)
system.cpu10.commitStats0.committedInstType::SimdWholeRegisterLoad            0      0.00%    100.00% # Class of committed instruction. (Count)
system.cpu10.commitStats0.committedInstType::SimdWholeRegisterStore            0      0.00%    100.00% # Class of committed instruction. (Count)
system.cpu10.commitStats0.committedInstType::SimdUnitStrideFaultOnlyFirstLoad            0      0.00%    100.00% # Class of committed instruction. (Count)
system.cpu10.commitStats0.committedInstType::SimdUnitStrideSegmentedLoad            0      0.00%    100.00% # Class of committed instruction. (Count)
system.cpu10.commitStats0.committedInstType::SimdUnitStrideSegmentedStore            0      0.00%    100.00% # Class of committed instruction. (Count)
system.cpu10.commitStats0.committedInstType::SimdUnitStrideSegmentedFaultOnlyFirstLoad            0      0.00%    100.00% # Class of committed instruction. (Count)
system.cpu10.commitStats0.committedInstType::SimdStrideSegmentedLoad            0      0.00%    100.00% # Class of committed instruction. (Count)
system.cpu10.commitStats0.committedInstType::SimdStrideSegmentedStore            0      0.00%    100.00% # Class of committed instruction. (Count)
system.cpu10.commitStats0.committedInstType::SimdExt            0      0.00%    100.00% # Class of committed instruction. (Count)
system.cpu10.commitStats0.committedInstType::SimdFloatExt            0      0.00%    100.00% # Class of committed instruction. (Count)
system.cpu10.commitStats0.committedInstType::SimdConfig            0      0.00%    100.00% # Class of committed instruction. (Count)
system.cpu10.commitStats0.committedInstType::total       233313                       # Class of committed instruction. (Count)
system.cpu10.commitStats0.committedControl::IsControl        44078                       # Class of control type instructions committed (Count)
system.cpu10.commitStats0.committedControl::IsDirectControl        43830                       # Class of control type instructions committed (Count)
system.cpu10.commitStats0.committedControl::IsIndirectControl          248                       # Class of control type instructions committed (Count)
system.cpu10.commitStats0.committedControl::IsCondControl        33542                       # Class of control type instructions committed (Count)
system.cpu10.commitStats0.committedControl::IsUncondControl        10536                       # Class of control type instructions committed (Count)
system.cpu10.commitStats0.committedControl::IsCall          180                       # Class of control type instructions committed (Count)
system.cpu10.commitStats0.committedControl::IsReturn          175                       # Class of control type instructions committed (Count)
system.cpu10.exec_context.thread_0.numMatAluAccesses            0                       # Number of matrix alu accesses (Count)
system.cpu10.exec_context.thread_0.numCallsReturns          355                       # Number of times a function call or return occured (Count)
system.cpu10.exec_context.thread_0.numMatInsts            0                       # Number of matrix instructions (Count)
system.cpu10.exec_context.thread_0.numIdleCycles   421.697701                       # Number of idle cycles (Cycle)
system.cpu10.exec_context.thread_0.numBusyCycles 584388.302299                       # Number of busy cycles (Cycle)
system.cpu10.exec_context.thread_0.notIdleFraction     0.999279                       # Percentage of non-idle cycles (Ratio)
system.cpu10.exec_context.thread_0.idleFraction     0.000721                       # Percentage of idle cycles (Ratio)
system.cpu10.executeStats0.numInsts                 0                       # Number of executed instructions (Count)
system.cpu10.executeStats0.numNop                   0                       # Number of nop insts executed (Count)
system.cpu10.executeStats0.numBranches              0                       # Number of branches executed (Count)
system.cpu10.executeStats0.numLoadInsts             0                       # Number of load instructions executed (Count)
system.cpu10.executeStats0.numStoreInsts        25808                       # Number of stores executed (Count)
system.cpu10.executeStats0.instRate                 0                       # Inst execution rate ((Count/Cycle))
system.cpu10.executeStats0.numFpAluAccesses         1354                       # Number of float alu accesses (Count)
system.cpu10.executeStats0.numFpRegReads         1462                       # Number of times the floating registers were read (Count)
system.cpu10.executeStats0.numFpRegWrites          785                       # Number of times the floating registers were written (Count)
system.cpu10.executeStats0.numIntAluAccesses       232452                       # Number of integer alu accesses (Count)
system.cpu10.executeStats0.numIntRegReads       230695                       # Number of times the integer registers were read (Count)
system.cpu10.executeStats0.numIntRegWrites       142972                       # Number of times the integer registers were written (Count)
system.cpu10.executeStats0.numMemRefs           25808                       # Number of memory refs (Count)
system.cpu10.executeStats0.numMiscRegReads       114179                       # Number of times the Misc registers were read (Count)
system.cpu10.executeStats0.numVecAluAccesses            0                       # Number of vector alu accesses (Count)
system.cpu10.executeStats0.numDiscardedOps            0                       # Number of ops (including micro ops) which were discarded before commit (Count)
system.cpu10.fetchStats0.numInsts              126060                       # Number of instructions fetched (thread level) (Count)
system.cpu10.fetchStats0.numOps                233313                       # Number of ops (including micro ops) fetched (thread level) (Count)
system.cpu10.fetchStats0.fetchRate           0.215557                       # Number of inst fetches per cycle ((Count/Cycle))
system.cpu10.fetchStats0.numBranches            44078                       # Number of branches fetched (Count)
system.cpu10.fetchStats0.branchRate          0.075371                       # Number of branch fetches per cycle (Ratio)
system.cpu10.fetchStats0.numFetchSuspends            0                       # Number of times Execute suspended instruction fetching (Count)
system.cpu10.interrupts.clk_domain.clock         8000                       # Clock period in ticks (Tick)
system.cpu10.mmu.dtb.rdAccesses                 13919                       # TLB accesses on read requests (Count)
system.cpu10.mmu.dtb.wrAccesses                 11893                       # TLB accesses on write requests (Count)
system.cpu10.mmu.dtb.rdMisses                      17                       # TLB misses on read requests (Count)
system.cpu10.mmu.dtb.wrMisses                       9                       # TLB misses on write requests (Count)
system.cpu10.mmu.dtb.walker.power_state.pwrStateResidencyTicks::UNDEFINED    292616000                       # Cumulative time (in ticks) in various power states (Tick)
system.cpu10.mmu.itb.rdAccesses                     0                       # TLB accesses on read requests (Count)
system.cpu10.mmu.itb.wrAccesses                181395                       # TLB accesses on write requests (Count)
system.cpu10.mmu.itb.rdMisses                       0                       # TLB misses on read requests (Count)
system.cpu10.mmu.itb.wrMisses                      46                       # TLB misses on write requests (Count)
system.cpu10.mmu.itb.walker.power_state.pwrStateResidencyTicks::UNDEFINED    292616000                       # Cumulative time (in ticks) in various power states (Tick)
system.cpu10.power_state.pwrStateResidencyTicks::ON    292616000                       # Cumulative time (in ticks) in various power states (Tick)
system.cpu10.thread_0.numInsts                      0                       # Number of Instructions committed (Count)
system.cpu10.thread_0.numOps                        0                       # Number of Ops committed (Count)
system.cpu10.thread_0.numMemRefs                    0                       # Number of Memory References (Count)
system.cpu10.workload.numSyscalls                  15                       # Number of system calls (Count)
system.cpu11.numCycles                         584663                       # Number of cpu cycles simulated (Cycle)
system.cpu11.cpi                             4.604661                       # CPI: cycles per instruction (core level) ((Cycle/Count))
system.cpu11.ipc                             0.217171                       # IPC: instructions per cycle (core level) ((Count/Cycle))
system.cpu11.numWorkItemsStarted                    0                       # Number of work items this cpu started (Count)
system.cpu11.numWorkItemsCompleted                  0                       # Number of work items this cpu completed (Count)
system.cpu11.commitStats0.numInsts             126972                       # Number of instructions committed (thread level) (Count)
system.cpu11.commitStats0.numOps               235441                       # Number of ops (including micro ops) committed (thread level) (Count)
system.cpu11.commitStats0.numInstsNotNOP            0                       # Number of instructions committed excluding NOPs or prefetches (Count)
system.cpu11.commitStats0.numOpsNotNOP              0                       # Number of Ops (including micro ops) Simulated (Count)
system.cpu11.commitStats0.cpi                4.604661                       # CPI: cycles per instruction (thread level) ((Cycle/Count))
system.cpu11.commitStats0.ipc                0.217171                       # IPC: instructions per cycle (thread level) ((Count/Cycle))
system.cpu11.commitStats0.numMemRefs                0                       # Number of memory references committed (Count)
system.cpu11.commitStats0.numFpInsts             1354                       # Number of float instructions (Count)
system.cpu11.commitStats0.numIntInsts          234580                       # Number of integer instructions (Count)
system.cpu11.commitStats0.numLoadInsts          14214                       # Number of load instructions (Count)
system.cpu11.commitStats0.numStoreInsts         11893                       # Number of store instructions (Count)
system.cpu11.commitStats0.numVecInsts               0                       # Number of vector instructions (Count)
system.cpu11.commitStats0.committedInstType::No_OpClass          210      0.09%      0.09% # Class of committed instruction. (Count)
system.cpu11.commitStats0.committedInstType::IntAlu       208536     88.57%     88.66% # Class of committed instruction. (Count)
system.cpu11.commitStats0.committedInstType::IntMult           14      0.01%     88.67% # Class of committed instruction. (Count)
system.cpu11.commitStats0.committedInstType::IntDiv           21      0.01%     88.68% # Class of committed instruction. (Count)
system.cpu11.commitStats0.committedInstType::FloatAdd          172      0.07%     88.75% # Class of committed instruction. (Count)
system.cpu11.commitStats0.committedInstType::FloatCmp            0      0.00%     88.75% # Class of committed instruction. (Count)
system.cpu11.commitStats0.committedInstType::FloatCvt            0      0.00%     88.75% # Class of committed instruction. (Count)
system.cpu11.commitStats0.committedInstType::FloatMult            0      0.00%     88.75% # Class of committed instruction. (Count)
system.cpu11.commitStats0.committedInstType::FloatMultAcc            0      0.00%     88.75% # Class of committed instruction. (Count)
system.cpu11.commitStats0.committedInstType::FloatDiv            0      0.00%     88.75% # Class of committed instruction. (Count)
system.cpu11.commitStats0.committedInstType::FloatMisc            0      0.00%     88.75% # Class of committed instruction. (Count)
system.cpu11.commitStats0.committedInstType::FloatSqrt            0      0.00%     88.75% # Class of committed instruction. (Count)
system.cpu11.commitStats0.committedInstType::SimdAdd            8      0.00%     88.75% # Class of committed instruction. (Count)
system.cpu11.commitStats0.committedInstType::SimdAddAcc            0      0.00%     88.75% # Class of committed instruction. (Count)
system.cpu11.commitStats0.committedInstType::SimdAlu           96      0.04%     88.79% # Class of committed instruction. (Count)
system.cpu11.commitStats0.committedInstType::SimdCmp            0      0.00%     88.79% # Class of committed instruction. (Count)
system.cpu11.commitStats0.committedInstType::SimdCvt           48      0.02%     88.81% # Class of committed instruction. (Count)
system.cpu11.commitStats0.committedInstType::SimdMisc          229      0.10%     88.91% # Class of committed instruction. (Count)
system.cpu11.commitStats0.committedInstType::SimdMult            0      0.00%     88.91% # Class of committed instruction. (Count)
system.cpu11.commitStats0.committedInstType::SimdMultAcc            0      0.00%     88.91% # Class of committed instruction. (Count)
system.cpu11.commitStats0.committedInstType::SimdMatMultAcc            0      0.00%     88.91% # Class of committed instruction. (Count)
system.cpu11.commitStats0.committedInstType::SimdShift            0      0.00%     88.91% # Class of committed instruction. (Count)
system.cpu11.commitStats0.committedInstType::SimdShiftAcc            0      0.00%     88.91% # Class of committed instruction. (Count)
system.cpu11.commitStats0.committedInstType::SimdDiv            0      0.00%     88.91% # Class of committed instruction. (Count)
system.cpu11.commitStats0.committedInstType::SimdSqrt            0      0.00%     88.91% # Class of committed instruction. (Count)
system.cpu11.commitStats0.committedInstType::SimdFloatAdd            0      0.00%     88.91% # Class of committed instruction. (Count)
system.cpu11.commitStats0.committedInstType::SimdFloatAlu            0      0.00%     88.91% # Class of committed instruction. (Count)
system.cpu11.commitStats0.committedInstType::SimdFloatCmp            0      0.00%     88.91% # Class of committed instruction. (Count)
system.cpu11.commitStats0.committedInstType::SimdFloatCvt            0      0.00%     88.91% # Class of committed instruction. (Count)
system.cpu11.commitStats0.committedInstType::SimdFloatDiv            0      0.00%     88.91% # Class of committed instruction. (Count)
system.cpu11.commitStats0.committedInstType::SimdFloatMisc            0      0.00%     88.91% # Class of committed instruction. (Count)
system.cpu11.commitStats0.committedInstType::SimdFloatMult            0      0.00%     88.91% # Class of committed instruction. (Count)
system.cpu11.commitStats0.committedInstType::SimdFloatMultAcc            0      0.00%     88.91% # Class of committed instruction. (Count)
system.cpu11.commitStats0.committedInstType::SimdFloatMatMultAcc            0      0.00%     88.91% # Class of committed instruction. (Count)
system.cpu11.commitStats0.committedInstType::SimdFloatSqrt            0      0.00%     88.91% # Class of committed instruction. (Count)
system.cpu11.commitStats0.committedInstType::SimdReduceAdd            0      0.00%     88.91% # Class of committed instruction. (Count)
system.cpu11.commitStats0.committedInstType::SimdReduceAlu            0      0.00%     88.91% # Class of committed instruction. (Count)
system.cpu11.commitStats0.committedInstType::SimdReduceCmp            0      0.00%     88.91% # Class of committed instruction. (Count)
system.cpu11.commitStats0.committedInstType::SimdFloatReduceAdd            0      0.00%     88.91% # Class of committed instruction. (Count)
system.cpu11.commitStats0.committedInstType::SimdFloatReduceCmp            0      0.00%     88.91% # Class of committed instruction. (Count)
system.cpu11.commitStats0.committedInstType::SimdAes            0      0.00%     88.91% # Class of committed instruction. (Count)
system.cpu11.commitStats0.committedInstType::SimdAesMix            0      0.00%     88.91% # Class of committed instruction. (Count)
system.cpu11.commitStats0.committedInstType::SimdSha1Hash            0      0.00%     88.91% # Class of committed instruction. (Count)
system.cpu11.commitStats0.committedInstType::SimdSha1Hash2            0      0.00%     88.91% # Class of committed instruction. (Count)
system.cpu11.commitStats0.committedInstType::SimdSha256Hash            0      0.00%     88.91% # Class of committed instruction. (Count)
system.cpu11.commitStats0.committedInstType::SimdSha256Hash2            0      0.00%     88.91% # Class of committed instruction. (Count)
system.cpu11.commitStats0.committedInstType::SimdShaSigma2            0      0.00%     88.91% # Class of committed instruction. (Count)
system.cpu11.commitStats0.committedInstType::SimdShaSigma3            0      0.00%     88.91% # Class of committed instruction. (Count)
system.cpu11.commitStats0.committedInstType::SimdPredAlu            0      0.00%     88.91% # Class of committed instruction. (Count)
system.cpu11.commitStats0.committedInstType::Matrix            0      0.00%     88.91% # Class of committed instruction. (Count)
system.cpu11.commitStats0.committedInstType::MatrixMov            0      0.00%     88.91% # Class of committed instruction. (Count)
system.cpu11.commitStats0.committedInstType::MatrixOP            0      0.00%     88.91% # Class of committed instruction. (Count)
system.cpu11.commitStats0.committedInstType::MemRead        14093      5.99%     94.90% # Class of committed instruction. (Count)
system.cpu11.commitStats0.committedInstType::MemWrite        11370      4.83%     99.73% # Class of committed instruction. (Count)
system.cpu11.commitStats0.committedInstType::FloatMemRead          121      0.05%     99.78% # Class of committed instruction. (Count)
system.cpu11.commitStats0.committedInstType::FloatMemWrite          523      0.22%    100.00% # Class of committed instruction. (Count)
system.cpu11.commitStats0.committedInstType::IprAccess            0      0.00%    100.00% # Class of committed instruction. (Count)
system.cpu11.commitStats0.committedInstType::InstPrefetch            0      0.00%    100.00% # Class of committed instruction. (Count)
system.cpu11.commitStats0.committedInstType::SimdUnitStrideLoad            0      0.00%    100.00% # Class of committed instruction. (Count)
system.cpu11.commitStats0.committedInstType::SimdUnitStrideStore            0      0.00%    100.00% # Class of committed instruction. (Count)
system.cpu11.commitStats0.committedInstType::SimdUnitStrideMaskLoad            0      0.00%    100.00% # Class of committed instruction. (Count)
system.cpu11.commitStats0.committedInstType::SimdUnitStrideMaskStore            0      0.00%    100.00% # Class of committed instruction. (Count)
system.cpu11.commitStats0.committedInstType::SimdStridedLoad            0      0.00%    100.00% # Class of committed instruction. (Count)
system.cpu11.commitStats0.committedInstType::SimdStridedStore            0      0.00%    100.00% # Class of committed instruction. (Count)
system.cpu11.commitStats0.committedInstType::SimdIndexedLoad            0      0.00%    100.00% # Class of committed instruction. (Count)
system.cpu11.commitStats0.committedInstType::SimdIndexedStore            0      0.00%    100.00% # Class of committed instruction. (Count)
system.cpu11.commitStats0.committedInstType::SimdWholeRegisterLoad            0      0.00%    100.00% # Class of committed instruction. (Count)
system.cpu11.commitStats0.committedInstType::SimdWholeRegisterStore            0      0.00%    100.00% # Class of committed instruction. (Count)
system.cpu11.commitStats0.committedInstType::SimdUnitStrideFaultOnlyFirstLoad            0      0.00%    100.00% # Class of committed instruction. (Count)
system.cpu11.commitStats0.committedInstType::SimdUnitStrideSegmentedLoad            0      0.00%    100.00% # Class of committed instruction. (Count)
system.cpu11.commitStats0.committedInstType::SimdUnitStrideSegmentedStore            0      0.00%    100.00% # Class of committed instruction. (Count)
system.cpu11.commitStats0.committedInstType::SimdUnitStrideSegmentedFaultOnlyFirstLoad            0      0.00%    100.00% # Class of committed instruction. (Count)
system.cpu11.commitStats0.committedInstType::SimdStrideSegmentedLoad            0      0.00%    100.00% # Class of committed instruction. (Count)
system.cpu11.commitStats0.committedInstType::SimdStrideSegmentedStore            0      0.00%    100.00% # Class of committed instruction. (Count)
system.cpu11.commitStats0.committedInstType::SimdExt            0      0.00%    100.00% # Class of committed instruction. (Count)
system.cpu11.commitStats0.committedInstType::SimdFloatExt            0      0.00%    100.00% # Class of committed instruction. (Count)
system.cpu11.commitStats0.committedInstType::SimdConfig            0      0.00%    100.00% # Class of committed instruction. (Count)
system.cpu11.commitStats0.committedInstType::total       235441                       # Class of committed instruction. (Count)
system.cpu11.commitStats0.committedControl::IsControl        44382                       # Class of control type instructions committed (Count)
system.cpu11.commitStats0.committedControl::IsDirectControl        44134                       # Class of control type instructions committed (Count)
system.cpu11.commitStats0.committedControl::IsIndirectControl          248                       # Class of control type instructions committed (Count)
system.cpu11.commitStats0.committedControl::IsCondControl        33846                       # Class of control type instructions committed (Count)
system.cpu11.commitStats0.committedControl::IsUncondControl        10536                       # Class of control type instructions committed (Count)
system.cpu11.commitStats0.committedControl::IsCall          180                       # Class of control type instructions committed (Count)
system.cpu11.commitStats0.committedControl::IsReturn          175                       # Class of control type instructions committed (Count)
system.cpu11.exec_context.thread_0.numMatAluAccesses            0                       # Number of matrix alu accesses (Count)
system.cpu11.exec_context.thread_0.numCallsReturns          355                       # Number of times a function call or return occured (Count)
system.cpu11.exec_context.thread_0.numMatInsts            0                       # Number of matrix instructions (Count)
system.cpu11.exec_context.thread_0.numIdleCycles   568.448778                       # Number of idle cycles (Cycle)
system.cpu11.exec_context.thread_0.numBusyCycles 584094.551222                       # Number of busy cycles (Cycle)
system.cpu11.exec_context.thread_0.notIdleFraction     0.999028                       # Percentage of non-idle cycles (Ratio)
system.cpu11.exec_context.thread_0.idleFraction     0.000972                       # Percentage of idle cycles (Ratio)
system.cpu11.executeStats0.numInsts                 0                       # Number of executed instructions (Count)
system.cpu11.executeStats0.numNop                   0                       # Number of nop insts executed (Count)
system.cpu11.executeStats0.numBranches              0                       # Number of branches executed (Count)
system.cpu11.executeStats0.numLoadInsts             0                       # Number of load instructions executed (Count)
system.cpu11.executeStats0.numStoreInsts        26107                       # Number of stores executed (Count)
system.cpu11.executeStats0.instRate                 0                       # Inst execution rate ((Count/Cycle))
system.cpu11.executeStats0.numFpAluAccesses         1354                       # Number of float alu accesses (Count)
system.cpu11.executeStats0.numFpRegReads         1462                       # Number of times the floating registers were read (Count)
system.cpu11.executeStats0.numFpRegWrites          785                       # Number of times the floating registers were written (Count)
system.cpu11.executeStats0.numIntAluAccesses       234580                       # Number of integer alu accesses (Count)
system.cpu11.executeStats0.numIntRegReads       232210                       # Number of times the integer registers were read (Count)
system.cpu11.executeStats0.numIntRegWrites       144492                       # Number of times the integer registers were written (Count)
system.cpu11.executeStats0.numMemRefs           26107                       # Number of memory refs (Count)
system.cpu11.executeStats0.numMiscRegReads       115086                       # Number of times the Misc registers were read (Count)
system.cpu11.executeStats0.numVecAluAccesses            0                       # Number of vector alu accesses (Count)
system.cpu11.executeStats0.numDiscardedOps            0                       # Number of ops (including micro ops) which were discarded before commit (Count)
system.cpu11.fetchStats0.numInsts              126972                       # Number of instructions fetched (thread level) (Count)
system.cpu11.fetchStats0.numOps                235441                       # Number of ops (including micro ops) fetched (thread level) (Count)
system.cpu11.fetchStats0.fetchRate           0.217171                       # Number of inst fetches per cycle ((Count/Cycle))
system.cpu11.fetchStats0.numBranches            44382                       # Number of branches fetched (Count)
system.cpu11.fetchStats0.branchRate          0.075910                       # Number of branch fetches per cycle (Ratio)
system.cpu11.fetchStats0.numFetchSuspends            0                       # Number of times Execute suspended instruction fetching (Count)
system.cpu11.interrupts.clk_domain.clock         8000                       # Clock period in ticks (Tick)
system.cpu11.mmu.dtb.rdAccesses                 14218                       # TLB accesses on read requests (Count)
system.cpu11.mmu.dtb.wrAccesses                 11893                       # TLB accesses on write requests (Count)
system.cpu11.mmu.dtb.rdMisses                      17                       # TLB misses on read requests (Count)
system.cpu11.mmu.dtb.wrMisses                       9                       # TLB misses on write requests (Count)
system.cpu11.mmu.dtb.walker.power_state.pwrStateResidencyTicks::UNDEFINED    292616000                       # Cumulative time (in ticks) in various power states (Tick)
system.cpu11.mmu.itb.rdAccesses                     0                       # TLB accesses on read requests (Count)
system.cpu11.mmu.itb.wrAccesses                182611                       # TLB accesses on write requests (Count)
system.cpu11.mmu.itb.rdMisses                       0                       # TLB misses on read requests (Count)
system.cpu11.mmu.itb.wrMisses                      46                       # TLB misses on write requests (Count)
system.cpu11.mmu.itb.walker.power_state.pwrStateResidencyTicks::UNDEFINED    292616000                       # Cumulative time (in ticks) in various power states (Tick)
system.cpu11.power_state.pwrStateResidencyTicks::ON    292616000                       # Cumulative time (in ticks) in various power states (Tick)
system.cpu11.thread_0.numInsts                      0                       # Number of Instructions committed (Count)
system.cpu11.thread_0.numOps                        0                       # Number of Ops committed (Count)
system.cpu11.thread_0.numMemRefs                    0                       # Number of Memory References (Count)
system.cpu11.workload.numSyscalls                  15                       # Number of system calls (Count)
system.cpu12.numCycles                         584800                       # Number of cpu cycles simulated (Cycle)
system.cpu12.cpi                             4.629366                       # CPI: cycles per instruction (core level) ((Cycle/Count))
system.cpu12.ipc                             0.216012                       # IPC: instructions per cycle (core level) ((Count/Cycle))
system.cpu12.numWorkItemsStarted                    0                       # Number of work items this cpu started (Count)
system.cpu12.numWorkItemsCompleted                  0                       # Number of work items this cpu completed (Count)
system.cpu12.commitStats0.numInsts             126324                       # Number of instructions committed (thread level) (Count)
[...]
system.ruby.network.routers7.throttle01.total_data_msg_bytes          640                       # Total number of data bytes forwarded by this switch (Byte)
system.ruby.network.routers7.throttle01.total_msg_wait_time         4500                       # Total time spend forwarding messages (Tick)
system.ruby.network.routers7.throttle01.total_stall_cy            0                       # Total time spent blocked on any output link (Cycle)
system.ruby.network.routers7.throttle01.total_bw_sat_cy           41                       # Total time bandwidth was saturated on any output link (Cycle)
system.ruby.network.routers7.throttle01.avg_msg_wait_time     4.007124                       # Average time a message took to be forwarded (Ratio)
system.ruby.network.routers7.throttle01.avg_bandwidth         0.03                       # Average bandwidth (GB/s) (Ratio)
system.ruby.network.routers7.throttle01.avg_useful_bandwidth         0.00                       # Average useful (only data) bandwidth (GB/s) (Ratio)
system.ruby.network.routers7.throttle01.msg_count.Control::0          804                       (Unspecified)
system.ruby.network.routers7.throttle01.msg_bytes.Control::0         6432                       (Unspecified)
system.ruby.network.routers7.throttle01.msg_count.Response_Data::1            6                       (Unspecified)
system.ruby.network.routers7.throttle01.msg_bytes.Response_Data::1          432                       (Unspecified)
system.ruby.network.routers7.throttle01.msg_count.Response_Control::1           29                       (Unspecified)
system.ruby.network.routers7.throttle01.msg_count.Response_Control::2          280                       (Unspecified)
system.ruby.network.routers7.throttle01.msg_bytes.Response_Control::1          232                       (Unspecified)
system.ruby.network.routers7.throttle01.msg_bytes.Response_Control::2         2240                       (Unspecified)
system.ruby.network.routers7.throttle01.msg_count.Writeback_Data::1            4                       (Unspecified)
system.ruby.network.routers7.throttle01.msg_bytes.Writeback_Data::1          288                       (Unspecified)
system.ruby.network.routers8.percent_links_utilized     0.361267                       (Unspecified)
system.ruby.network.routers8.msg_count.Control::0          802                       (Unspecified)
system.ruby.network.routers8.msg_bytes.Control::0         6416                       (Unspecified)
system.ruby.network.routers8.msg_count.Request_Control::2           40                       (Unspecified)
system.ruby.network.routers8.msg_bytes.Request_Control::2          320                       (Unspecified)
system.ruby.network.routers8.msg_count.Response_Data::1          806                       (Unspecified)
system.ruby.network.routers8.msg_bytes.Response_Data::1        58032                       (Unspecified)
system.ruby.network.routers8.msg_count.Response_Control::1           39                       (Unspecified)
system.ruby.network.routers8.msg_count.Response_Control::2          277                       (Unspecified)
system.ruby.network.routers8.msg_bytes.Response_Control::1          312                       (Unspecified)
system.ruby.network.routers8.msg_bytes.Response_Control::2         2216                       (Unspecified)
system.ruby.network.routers8.msg_count.Writeback_Data::1            5                       (Unspecified)
system.ruby.network.routers8.msg_bytes.Writeback_Data::1          360                       (Unspecified)
system.ruby.network.routers8.port_buffers1.m_msg_count          809                       # Number of messages passed the buffer (Count)
system.ruby.network.routers8.port_buffers1.m_buf_msgs     0.001382                       # Average number of messages in buffer ((Count/Tick))
system.ruby.network.routers8.port_buffers2.m_msg_count           40                       # Number of messages passed the buffer (Count)
system.ruby.network.routers8.port_buffers2.m_buf_msgs     0.000068                       # Average number of messages in buffer ((Count/Tick))
system.ruby.network.routers8.port_buffers3.m_msg_count          802                       # Number of messages passed the buffer (Count)
system.ruby.network.routers8.port_buffers3.m_buf_msgs     0.001370                       # Average number of messages in buffer ((Count/Tick))
system.ruby.network.routers8.port_buffers4.m_msg_count           41                       # Number of messages passed the buffer (Count)
system.ruby.network.routers8.port_buffers4.m_buf_msgs     0.000077                       # Average number of messages in buffer ((Count/Tick))
system.ruby.network.routers8.port_buffers4.m_stall_time         2000                       # Total number of ticks messages were stalled in this buffer (Tick)
system.ruby.network.routers8.port_buffers4.m_avg_stall_time    48.780488                       # Average stall ticks per message ((Tick/Count))
system.ruby.network.routers8.port_buffers5.m_msg_count          277                       # Number of messages passed the buffer (Count)
system.ruby.network.routers8.port_buffers5.m_buf_msgs     0.000473                       # Average number of messages in buffer ((Count/Tick))
system.ruby.network.routers8.power_state.pwrStateResidencyTicks::UNDEFINED    292616000                       # Cumulative time (in ticks) in various power states (Tick)
system.ruby.network.routers8.throttle00.acc_link_utilization  3628.500000                       # Accumulated link utilization system.ruby.network.ext_links08 (Count)
system.ruby.network.routers8.throttle00.link_utilization     0.620011                       # Average link utilization (Ratio)
system.ruby.network.routers8.throttle00.total_msg_count          849                       # Total number of messages forwarded by this switch (Count)
system.ruby.network.routers8.throttle00.total_msg_bytes        58056                       # Total number of bytes forwarded by this switch (Byte)
system.ruby.network.routers8.throttle00.total_data_msg_bytes        51264                       # Total number of data bytes forwarded by this switch (Byte)
system.ruby.network.routers8.throttle00.total_msg_wait_time            0                       # Total time spend forwarding messages (Tick)
system.ruby.network.routers8.throttle00.total_stall_cy            0                       # Total time spent blocked on any output link (Cycle)
system.ruby.network.routers8.throttle00.total_bw_sat_cy         3204                       # Total time bandwidth was saturated on any output link (Cycle)
system.ruby.network.routers8.throttle00.avg_msg_wait_time            0                       # Average time a message took to be forwarded (Ratio)
system.ruby.network.routers8.throttle00.avg_bandwidth         0.18                       # Average bandwidth (GB/s) (Ratio)
system.ruby.network.routers8.throttle00.avg_useful_bandwidth         0.16                       # Average useful (only data) bandwidth (GB/s) (Ratio)
system.ruby.network.routers8.throttle00.msg_count.Request_Control::2           40                       (Unspecified)
system.ruby.network.routers8.throttle00.msg_bytes.Request_Control::2          320                       (Unspecified)
system.ruby.network.routers8.throttle00.msg_count.Response_Data::1          801                       (Unspecified)
system.ruby.network.routers8.throttle00.msg_bytes.Response_Data::1        57672                       (Unspecified)
system.ruby.network.routers8.throttle00.msg_count.Response_Control::1            8                       (Unspecified)
system.ruby.network.routers8.throttle00.msg_bytes.Response_Control::1           64                       (Unspecified)
system.ruby.network.routers8.throttle01.acc_link_utilization          600                       # Accumulated link utilization system.ruby.network.int_links08 (Count)
system.ruby.network.routers8.throttle01.link_utilization     0.102523                       # Average link utilization (Ratio)
system.ruby.network.routers8.throttle01.total_msg_count         1120                       # Total number of messages forwarded by this switch (Count)
system.ruby.network.routers8.throttle01.total_msg_bytes         9600                       # Total number of bytes forwarded by this switch (Byte)
system.ruby.network.routers8.throttle01.total_data_msg_bytes          640                       # Total number of data bytes forwarded by this switch (Byte)
system.ruby.network.routers8.throttle01.total_msg_wait_time         2000                       # Total time spend forwarding messages (Tick)
system.ruby.network.routers8.throttle01.total_stall_cy            0                       # Total time spent blocked on any output link (Cycle)
system.ruby.network.routers8.throttle01.total_bw_sat_cy           40                       # Total time bandwidth was saturated on any output link (Cycle)
system.ruby.network.routers8.throttle01.avg_msg_wait_time     1.785714                       # Average time a message took to be forwarded (Ratio)
system.ruby.network.routers8.throttle01.avg_bandwidth         0.03                       # Average bandwidth (GB/s) (Ratio)
system.ruby.network.routers8.throttle01.avg_useful_bandwidth         0.00                       # Average useful (only data) bandwidth (GB/s) (Ratio)
system.ruby.network.routers8.throttle01.msg_count.Control::0          802                       (Unspecified)
system.ruby.network.routers8.throttle01.msg_bytes.Control::0         6416                       (Unspecified)
system.ruby.network.routers8.throttle01.msg_count.Response_Data::1            5                       (Unspecified)
system.ruby.network.routers8.throttle01.msg_bytes.Response_Data::1          360                       (Unspecified)
system.ruby.network.routers8.throttle01.msg_count.Response_Control::1           31                       (Unspecified)
system.ruby.network.routers8.throttle01.msg_count.Response_Control::2          277                       (Unspecified)
system.ruby.network.routers8.throttle01.msg_bytes.Response_Control::1          248                       (Unspecified)
system.ruby.network.routers8.throttle01.msg_bytes.Response_Control::2         2216                       (Unspecified)
system.ruby.network.routers8.throttle01.msg_count.Writeback_Data::1            5                       (Unspecified)
system.ruby.network.routers8.throttle01.msg_bytes.Writeback_Data::1          360                       (Unspecified)
system.ruby.network.routers9.percent_links_utilized     0.361053                       (Unspecified)
system.ruby.network.routers9.msg_count.Control::0          802                       (Unspecified)
system.ruby.network.routers9.msg_bytes.Control::0         6416                       (Unspecified)
system.ruby.network.routers9.msg_count.Request_Control::2           35                       (Unspecified)
system.ruby.network.routers9.msg_bytes.Request_Control::2          280                       (Unspecified)
system.ruby.network.routers9.msg_count.Response_Data::1          806                       (Unspecified)
system.ruby.network.routers9.msg_bytes.Response_Data::1        58032                       (Unspecified)
system.ruby.network.routers9.msg_count.Response_Control::1           47                       (Unspecified)
system.ruby.network.routers9.msg_count.Response_Control::2          278                       (Unspecified)
system.ruby.network.routers9.msg_bytes.Response_Control::1          376                       (Unspecified)
system.ruby.network.routers9.msg_bytes.Response_Control::2         2224                       (Unspecified)
system.ruby.network.routers9.msg_count.Writeback_Data::1            4                       (Unspecified)
system.ruby.network.routers9.msg_bytes.Writeback_Data::1          288                       (Unspecified)
system.ruby.network.routers9.port_buffers1.m_msg_count          820                       # Number of messages passed the buffer (Count)
system.ruby.network.routers9.port_buffers1.m_buf_msgs     0.001401                       # Average number of messages in buffer ((Count/Tick))
system.ruby.network.routers9.port_buffers2.m_msg_count           35                       # Number of messages passed the buffer (Count)
system.ruby.network.routers9.port_buffers2.m_buf_msgs     0.000060                       # Average number of messages in buffer ((Count/Tick))
system.ruby.network.routers9.port_buffers3.m_msg_count          802                       # Number of messages passed the buffer (Count)
system.ruby.network.routers9.port_buffers3.m_buf_msgs     0.001377                       # Average number of messages in buffer ((Count/Tick))
system.ruby.network.routers9.port_buffers3.m_stall_time         2000                       # Total number of ticks messages were stalled in this buffer (Tick)
system.ruby.network.routers9.port_buffers3.m_avg_stall_time     2.493766                       # Average stall ticks per message ((Tick/Count))
system.ruby.network.routers9.port_buffers4.m_msg_count           37                       # Number of messages passed the buffer (Count)
system.ruby.network.routers9.port_buffers4.m_buf_msgs     0.000077                       # Average number of messages in buffer ((Count/Tick))
system.ruby.network.routers9.port_buffers4.m_stall_time         4000                       # Total number of ticks messages were stalled in this buffer (Tick)
system.ruby.network.routers9.port_buffers4.m_avg_stall_time   108.108108                       # Average stall ticks per message ((Tick/Count))
system.ruby.network.routers9.port_buffers5.m_msg_count          278                       # Number of messages passed the buffer (Count)
system.ruby.network.routers9.port_buffers5.m_buf_msgs     0.000475                       # Average number of messages in buffer ((Count/Tick))
system.ruby.network.routers9.power_state.pwrStateResidencyTicks::UNDEFINED    292616000                       # Cumulative time (in ticks) in various power states (Tick)
system.ruby.network.routers9.throttle00.acc_link_utilization  3627.500000                       # Accumulated link utilization system.ruby.network.ext_links09 (Count)
system.ruby.network.routers9.throttle00.link_utilization     0.619840                       # Average link utilization (Ratio)
system.ruby.network.routers9.throttle00.total_msg_count          855                       # Total number of messages forwarded by this switch (Count)
system.ruby.network.routers9.throttle00.total_msg_bytes        58040                       # Total number of bytes forwarded by this switch (Byte)
system.ruby.network.routers9.throttle00.total_data_msg_bytes        51200                       # Total number of data bytes forwarded by this switch (Byte)
system.ruby.network.routers9.throttle00.total_msg_wait_time            0                       # Total time spend forwarding messages (Tick)
system.ruby.network.routers9.throttle00.total_stall_cy            0                       # Total time spent blocked on any output link (Cycle)
system.ruby.network.routers9.throttle00.total_bw_sat_cy         3200                       # Total time bandwidth was saturated on any output link (Cycle)
system.ruby.network.routers9.throttle00.avg_msg_wait_time            0                       # Average time a message took to be forwarded (Ratio)
system.ruby.network.routers9.throttle00.avg_bandwidth         0.18                       # Average bandwidth (GB/s) (Ratio)
system.ruby.network.routers9.throttle00.avg_useful_bandwidth         0.16                       # Average useful (only data) bandwidth (GB/s) (Ratio)
system.ruby.network.routers9.throttle00.msg_count.Request_Control::2           35                       (Unspecified)
system.ruby.network.routers9.throttle00.msg_bytes.Request_Control::2          280                       (Unspecified)
system.ruby.network.routers9.throttle00.msg_count.Response_Data::1          800                       (Unspecified)
system.ruby.network.routers9.throttle00.msg_bytes.Response_Data::1        57600                       (Unspecified)
system.ruby.network.routers9.throttle00.msg_count.Response_Control::1           20                       (Unspecified)
system.ruby.network.routers9.throttle00.msg_bytes.Response_Control::1          160                       (Unspecified)
system.ruby.network.routers9.throttle01.acc_link_utilization   598.500000                       # Accumulated link utilization system.ruby.network.int_links09 (Count)
system.ruby.network.routers9.throttle01.link_utilization     0.102267                       # Average link utilization (Ratio)
system.ruby.network.routers9.throttle01.total_msg_count         1117                       # Total number of messages forwarded by this switch (Count)
system.ruby.network.routers9.throttle01.total_msg_bytes         9576                       # Total number of bytes forwarded by this switch (Byte)
system.ruby.network.routers9.throttle01.total_data_msg_bytes          640                       # Total number of data bytes forwarded by this switch (Byte)
system.ruby.network.routers9.throttle01.total_msg_wait_time         6000                       # Total time spend forwarding messages (Tick)
system.ruby.network.routers9.throttle01.total_stall_cy            0                       # Total time spent blocked on any output link (Cycle)
system.ruby.network.routers9.throttle01.total_bw_sat_cy           42                       # Total time bandwidth was saturated on any output link (Cycle)
system.ruby.network.routers9.throttle01.avg_msg_wait_time     5.371531                       # Average time a message took to be forwarded (Ratio)
system.ruby.network.routers9.throttle01.avg_bandwidth         0.03                       # Average bandwidth (GB/s) (Ratio)
system.ruby.network.routers9.throttle01.avg_useful_bandwidth         0.00                       # Average useful (only data) bandwidth (GB/s) (Ratio)
system.ruby.network.routers9.throttle01.msg_count.Control::0          802                       (Unspecified)
system.ruby.network.routers9.throttle01.msg_bytes.Control::0         6416                       (Unspecified)
system.ruby.network.routers9.throttle01.msg_count.Response_Data::1            6                       (Unspecified)
system.ruby.network.routers9.throttle01.msg_bytes.Response_Data::1          432                       (Unspecified)
system.ruby.network.routers9.throttle01.msg_count.Response_Control::1           27                       (Unspecified)
system.ruby.network.routers9.throttle01.msg_count.Response_Control::2          278                       (Unspecified)
system.ruby.network.routers9.throttle01.msg_bytes.Response_Control::1          216                       (Unspecified)
system.ruby.network.routers9.throttle01.msg_bytes.Response_Control::2         2224                       (Unspecified)
system.ruby.network.routers9.throttle01.msg_count.Writeback_Data::1            4                       (Unspecified)
system.ruby.network.routers9.throttle01.msg_bytes.Writeback_Data::1          288                       (Unspecified)
system.ruby.power_state.pwrStateResidencyTicks::UNDEFINED    292616000                       # Cumulative time (in ticks) in various power states (Tick)
system.sys_port_proxy.power_state.pwrStateResidencyTicks::UNDEFINED    292616000                       # Cumulative time (in ticks) in various power states (Tick)
system.voltage_domain.voltage                       1                       # Voltage in Volts (Volt)
system.workload.inst.arm                            0                       # number of arm instructions executed (Count)
system.workload.inst.quiesce                        0                       # number of quiesce instructions executed (Count)

---------- End Simulation Statistics   ----------
