
---------- Begin Simulation Statistics ----------
simSeconds                                   0.000283                       # Number of seconds simulated (Second)
simTicks                                    283404000                       # Number of ticks simulated (Tick)
finalTick                                   283404000                       # Number of ticks from beginning of simulation (restored from checkpoints and never reset) (Tick)
simFreq                                  1000000000000                       # The number of ticks per simulated second ((Tick/Second))
hostSeconds                                      0.27                       # Real time elapsed on the host (Second)
hostTickRate                               1046365832                       # The number of ticks simulated per host second (ticks/s) ((Tick/Second))
hostMemory                                    2592828                       # Number of bytes of host memory used (Byte)
simInsts                                       141446                       # Number of instructions simulated (Count)
simOps                                         271653                       # Number of ops (including micro ops) simulated (Count)
hostInstRate                                   522091                       # Simulator instruction rate (inst/s) ((Count/Second))
hostOpRate                                    1002687                       # Simulator op (including micro ops) rate (op/s) ((Count/Second))
system.clk_domain.clock                          1000                       # Clock period in ticks (Tick)
system.cpu.numCycles                           566808                       # Number of cpu cycles simulated (Cycle)
system.cpu.cpi                               4.006758                       # CPI: cycles per instruction (core level) ((Cycle/Count))
system.cpu.ipc                               0.249578                       # IPC: instructions per cycle (core level) ((Count/Cycle))
system.cpu.numWorkItemsStarted                      0                       # Number of work items this cpu started (Count)
system.cpu.numWorkItemsCompleted                    0                       # Number of work items this cpu completed (Count)
system.cpu.commitStats0.numInsts               141463                       # Number of instructions committed (thread level) (Count)
system.cpu.commitStats0.numOps                 271671                       # Number of ops (including micro ops) committed (thread level) (Count)
system.cpu.commitStats0.numInstsNotNOP              0                       # Number of instructions committed excluding NOPs or prefetches (Count)
system.cpu.commitStats0.numOpsNotNOP                0                       # Number of Ops (including micro ops) Simulated (Count)
system.cpu.commitStats0.cpi                  4.006758                       # CPI: cycles per instruction (thread level) ((Cycle/Count))
system.cpu.commitStats0.ipc                  0.249578                       # IPC: instructions per cycle (thread level) ((Count/Cycle))
system.cpu.commitStats0.numMemRefs                  0                       # Number of memory references committed (Count)
system.cpu.commitStats0.numFpInsts               1354                       # Number of float instructions (Count)
system.cpu.commitStats0.numIntInsts            270812                       # Number of integer instructions (Count)
system.cpu.commitStats0.numLoadInsts            11885                       # Number of load instructions (Count)
system.cpu.commitStats0.numStoreInsts           12554                       # Number of store instructions (Count)
system.cpu.commitStats0.numVecInsts                 0                       # Number of vector instructions (Count)
system.cpu.commitStats0.committedInstType::No_OpClass          207      0.08%      0.08% # Class of committed instruction. (Count)
system.cpu.commitStats0.committedInstType::IntAlu       246439     90.71%     90.79% # Class of committed instruction. (Count)
system.cpu.commitStats0.committedInstType::IntMult           12      0.00%     90.79% # Class of committed instruction. (Count)
system.cpu.commitStats0.committedInstType::IntDiv           21      0.01%     90.80% # Class of committed instruction. (Count)
system.cpu.commitStats0.committedInstType::FloatAdd          172      0.06%     90.86% # Class of committed instruction. (Count)
system.cpu.commitStats0.committedInstType::FloatCmp            0      0.00%     90.86% # Class of committed instruction. (Count)
system.cpu.commitStats0.committedInstType::FloatCvt            0      0.00%     90.86% # Class of committed instruction. (Count)
system.cpu.commitStats0.committedInstType::FloatMult            0      0.00%     90.86% # Class of committed instruction. (Count)
system.cpu.commitStats0.committedInstType::FloatMultAcc            0      0.00%     90.86% # Class of committed instruction. (Count)
system.cpu.commitStats0.committedInstType::FloatDiv            0      0.00%     90.86% # Class of committed instruction. (Count)
system.cpu.commitStats0.committedInstType::FloatMisc            0      0.00%     90.86% # Class of committed instruction. (Count)
system.cpu.commitStats0.committedInstType::FloatSqrt            0      0.00%     90.86% # Class of committed instruction. (Count)
system.cpu.commitStats0.committedInstType::SimdAdd            8      0.00%     90.87% # Class of committed instruction. (Count)
system.cpu.commitStats0.committedInstType::SimdAddAcc            0      0.00%     90.87% # Class of committed instruction. (Count)
system.cpu.commitStats0.committedInstType::SimdAlu           96      0.04%     90.90% # Class of committed instruction. (Count)
system.cpu.commitStats0.committedInstType::SimdCmp            0      0.00%     90.90% # Class of committed instruction. (Count)
system.cpu.commitStats0.committedInstType::SimdCvt           48      0.02%     90.92% # Class of committed instruction. (Count)
system.cpu.commitStats0.committedInstType::SimdMisc          229      0.08%     91.00% # Class of committed instruction. (Count)
system.cpu.commitStats0.committedInstType::SimdMult            0      0.00%     91.00% # Class of committed instruction. (Count)
system.cpu.commitStats0.committedInstType::SimdMultAcc            0      0.00%     91.00% # Class of committed instruction. (Count)
system.cpu.commitStats0.committedInstType::SimdMatMultAcc            0      0.00%     91.00% # Class of committed instruction. (Count)
system.cpu.commitStats0.committedInstType::SimdShift            0      0.00%     91.00% # Class of committed instruction. (Count)
system.cpu.commitStats0.committedInstType::SimdShiftAcc            0      0.00%     91.00% # Class of committed instruction. (Count)
system.cpu.commitStats0.committedInstType::SimdDiv            0      0.00%     91.00% # Class of committed instruction. (Count)
system.cpu.commitStats0.committedInstType::SimdSqrt            0      0.00%     91.00% # Class of committed instruction. (Count)
system.cpu.commitStats0.committedInstType::SimdFloatAdd            0      0.00%     91.00% # Class of committed instruction. (Count)
system.cpu.commitStats0.committedInstType::SimdFloatAlu            0      0.00%     91.00% # Class of committed instruction. (Count)
system.cpu.commitStats0.committedInstType::SimdFloatCmp            0      0.00%     91.00% # Class of committed instruction. (Count)
system.cpu.commitStats0.committedInstType::SimdFloatCvt            0      0.00%     91.00% # Class of committed instruction. (Count)
system.cpu.commitStats0.committedInstType::SimdFloatDiv            0      0.00%     91.00% # Class of committed instruction. (Count)
system.cpu.commitStats0.committedInstType::SimdFloatMisc            0      0.00%     91.00% # Class of committed instruction. (Count)
system.cpu.commitStats0.committedInstType::SimdFloatMult            0      0.00%     91.00% # Class of committed instruction. (Count)
system.cpu.commitStats0.committedInstType::SimdFloatMultAcc            0      0.00%     91.00% # Class of committed instruction. (Count)
system.cpu.commitStats0.committedInstType::SimdFloatMatMultAcc            0      0.00%     91.00% # Class of committed instruction. (Count)
system.cpu.commitStats0.committedInstType::SimdFloatSqrt            0      0.00%     91.00% # Class of committed instruction. (Count)
system.cpu.commitStats0.committedInstType::SimdReduceAdd            0      0.00%     91.00% # Class of committed instruction. (Count)
system.cpu.commitStats0.committedInstType::SimdReduceAlu            0      0.00%     91.00% # Class of committed instruction. (Count)
system.cpu.commitStats0.committedInstType::SimdReduceCmp            0      0.00%     91.00% # Class of committed instruction. (Count)
system.cpu.commitStats0.committedInstType::SimdFloatReduceAdd            0      0.00%     91.00% # Class of committed instruction. (Count)
system.cpu.commitStats0.committedInstType::SimdFloatReduceCmp            0      0.00%     91.00% # Class of committed instruction. (Count)
system.cpu.commitStats0.committedInstType::SimdAes            0      0.00%     91.00% # Class of committed instruction. (Count)
system.cpu.commitStats0.committedInstType::SimdAesMix            0      0.00%     91.00% # Class of committed instruction. (Count)
system.cpu.commitStats0.committedInstType::SimdSha1Hash            0      0.00%     91.00% # Class of committed instruction. (Count)
system.cpu.commitStats0.committedInstType::SimdSha1Hash2            0      0.00%     91.00% # Class of committed instruction. (Count)
system.cpu.commitStats0.committedInstType::SimdSha256Hash            0      0.00%     91.00% # Class of committed instruction. (Count)
system.cpu.commitStats0.committedInstType::SimdSha256Hash2            0      0.00%     91.00% # Class of committed instruction. (Count)
system.cpu.commitStats0.committedInstType::SimdShaSigma2            0      0.00%     91.00% # Class of committed instruction. (Count)
system.cpu.commitStats0.committedInstType::SimdShaSigma3            0      0.00%     91.00% # Class of committed instruction. (Count)
system.cpu.commitStats0.committedInstType::SimdPredAlu            0      0.00%     91.00% # Class of committed instruction. (Count)
system.cpu.commitStats0.committedInstType::Matrix            0      0.00%     91.00% # Class of committed instruction. (Count)
system.cpu.commitStats0.committedInstType::MatrixMov            0      0.00%     91.00% # Class of committed instruction. (Count)
system.cpu.commitStats0.committedInstType::MatrixOP            0      0.00%     91.00% # Class of committed instruction. (Count)
system.cpu.commitStats0.committedInstType::MemRead        11764      4.33%     95.33% # Class of committed instruction. (Count)
system.cpu.commitStats0.committedInstType::MemWrite        12031      4.43%     99.76% # Class of committed instruction. (Count)
system.cpu.commitStats0.committedInstType::FloatMemRead          121      0.04%     99.81% # Class of committed instruction. (Count)
system.cpu.commitStats0.committedInstType::FloatMemWrite          523      0.19%    100.00% # Class of committed instruction. (Count)
system.cpu.commitStats0.committedInstType::IprAccess            0      0.00%    100.00% # Class of committed instruction. (Count)
system.cpu.commitStats0.committedInstType::InstPrefetch            0      0.00%    100.00% # Class of committed instruction. (Count)
system.cpu.commitStats0.committedInstType::SimdUnitStrideLoad            0      0.00%    100.00% # Class of committed instruction. (Count)
system.cpu.commitStats0.committedInstType::SimdUnitStrideStore            0      0.00%    100.00% # Class of committed instruction. (Count)
system.cpu.commitStats0.committedInstType::SimdUnitStrideMaskLoad            0      0.00%    100.00% # Class of committed instruction. (Count)
system.cpu.commitStats0.committedInstType::SimdUnitStrideMaskStore            0      0.00%    100.00% # Class of committed instruction. (Count)
system.cpu.commitStats0.committedInstType::SimdStridedLoad            0      0.00%    100.00% # Class of committed instruction. (Count)
system.cpu.commitStats0.committedInstType::SimdStridedStore            0      0.00%    100.00% # Class of committed instruction. (Count)
system.cpu.commitStats0.committedInstType::SimdIndexedLoad            0      0.00%    100.00% # Class of committed instruction. (Count)
system.cpu.commitStats0.committedInstType::SimdIndexedStore            0      0.00%    100.00% # Class of committed instruction. (Count)
system.cpu.commitStats0.committedInstType::SimdWholeRegisterLoad            0      0.00%    100.00% # Class of committed instruction. (Count)
system.cpu.commitStats0.committedInstType::SimdWholeRegisterStore            0      0.00%    100.00% # Class of committed instruction. (Count)
system.cpu.commitStats0.committedInstType::SimdUnitStrideFaultOnlyFirstLoad            0      0.00%    100.00% # Class of committed instruction. (Count)
system.cpu.commitStats0.committedInstType::SimdUnitStrideSegmentedLoad            0      0.00%    100.00% # Class of committed instruction. (Count)
system.cpu.commitStats0.committedInstType::SimdUnitStrideSegmentedStore            0      0.00%    100.00% # Class of committed instruction. (Count)
system.cpu.commitStats0.committedInstType::SimdUnitStrideSegmentedFaultOnlyFirstLoad            0      0.00%    100.00% # Class of committed instruction. (Count)
system.cpu.commitStats0.committedInstType::SimdStrideSegmentedLoad            0      0.00%    100.00% # Class of committed instruction. (Count)
system.cpu.commitStats0.committedInstType::SimdStrideSegmentedStore            0      0.00%    100.00% # Class of committed instruction. (Count)
system.cpu.commitStats0.committedInstType::SimdExt            0      0.00%    100.00% # Class of committed instruction. (Count)
system.cpu.commitStats0.committedInstType::SimdFloatExt            0      0.00%    100.00% # Class of committed instruction. (Count)
system.cpu.commitStats0.committedInstType::SimdConfig            0      0.00%    100.00% # Class of committed instruction. (Count)
system.cpu.commitStats0.committedInstType::total       271671                       # Class of committed instruction. (Count)
system.cpu.commitStats0.committedControl::IsControl        52132                       # Class of control type instructions committed (Count)
system.cpu.commitStats0.committedControl::IsDirectControl        51884                       # Class of control type instructions committed (Count)
system.cpu.commitStats0.committedControl::IsIndirectControl          248                       # Class of control type instructions committed (Count)
system.cpu.commitStats0.committedControl::IsCondControl        41595                       # Class of control type instructions committed (Count)
system.cpu.commitStats0.committedControl::IsUncondControl        10537                       # Class of control type instructions committed (Count)
system.cpu.commitStats0.committedControl::IsCall          180                       # Class of control type instructions committed (Count)
system.cpu.commitStats0.committedControl::IsReturn          175                       # Class of control type instructions committed (Count)
system.cpu.exec_context.thread_0.numMatAluAccesses            0                       # Number of matrix alu accesses (Count)
system.cpu.exec_context.thread_0.numCallsReturns          355                       # Number of times a function call or return occured (Count)
system.cpu.exec_context.thread_0.numMatInsts            0                       # Number of matrix instructions (Count)
system.cpu.exec_context.thread_0.numIdleCycles     0.002000                       # Number of idle cycles (Cycle)
system.cpu.exec_context.thread_0.numBusyCycles 566807.998000                       # Number of busy cycles (Cycle)
system.cpu.exec_context.thread_0.notIdleFraction     1.000000                       # Percentage of non-idle cycles (Ratio)
system.cpu.exec_context.thread_0.idleFraction     0.000000                       # Percentage of idle cycles (Ratio)
system.cpu.executeStats0.numInsts                   0                       # Number of executed instructions (Count)
system.cpu.executeStats0.numNop                     0                       # Number of nop insts executed (Count)
system.cpu.executeStats0.numBranches                0                       # Number of branches executed (Count)
system.cpu.executeStats0.numLoadInsts               0                       # Number of load instructions executed (Count)
system.cpu.executeStats0.numStoreInsts          24439                       # Number of stores executed (Count)
system.cpu.executeStats0.instRate                   0                       # Inst execution rate ((Count/Cycle))
system.cpu.executeStats0.numFpAluAccesses         1354                       # Number of float alu accesses (Count)
system.cpu.executeStats0.numFpRegReads           1462                       # Number of times the floating registers were read (Count)
system.cpu.executeStats0.numFpRegWrites           785                       # Number of times the floating registers were written (Count)
system.cpu.executeStats0.numIntAluAccesses       270812                       # Number of integer alu accesses (Count)
system.cpu.executeStats0.numIntRegReads        283442                       # Number of times the integer registers were read (Count)
system.cpu.executeStats0.numIntRegWrites       164561                       # Number of times the integer registers were written (Count)
system.cpu.executeStats0.numMemRefs             24439                       # Number of memory refs (Count)
system.cpu.executeStats0.numMiscRegReads       128918                       # Number of times the Misc registers were read (Count)
system.cpu.executeStats0.numVecAluAccesses            0                       # Number of vector alu accesses (Count)
system.cpu.executeStats0.numDiscardedOps            0                       # Number of ops (including micro ops) which were discarded before commit (Count)
system.cpu.fetchStats0.numInsts                141463                       # Number of instructions fetched (thread level) (Count)
system.cpu.fetchStats0.numOps                  271671                       # Number of ops (including micro ops) fetched (thread level) (Count)
system.cpu.fetchStats0.fetchRate             0.249578                       # Number of inst fetches per cycle ((Count/Cycle))
system.cpu.fetchStats0.numBranches              52132                       # Number of branches fetched (Count)
system.cpu.fetchStats0.branchRate            0.091975                       # Number of branch fetches per cycle (Ratio)
system.cpu.fetchStats0.numFetchSuspends             0                       # Number of times Execute suspended instruction fetching (Count)
system.cpu.interrupts.clk_domain.clock           8000                       # Clock period in ticks (Tick)
system.cpu.mmu.dtb.rdAccesses                   11889                       # TLB accesses on read requests (Count)
system.cpu.mmu.dtb.wrAccesses                   12554                       # TLB accesses on write requests (Count)
system.cpu.mmu.dtb.rdMisses                        15                       # TLB misses on read requests (Count)
system.cpu.mmu.dtb.wrMisses                        11                       # TLB misses on write requests (Count)
system.cpu.mmu.dtb.walker.power_state.pwrStateResidencyTicks::UNDEFINED    283404000                       # Cumulative time (in ticks) in various power states (Tick)
system.cpu.mmu.itb.rdAccesses                       0                       # TLB accesses on read requests (Count)
system.cpu.mmu.itb.wrAccesses                  205835                       # TLB accesses on write requests (Count)
system.cpu.mmu.itb.rdMisses                         0                       # TLB misses on read requests (Count)
system.cpu.mmu.itb.wrMisses                        46                       # TLB misses on write requests (Count)
system.cpu.mmu.itb.walker.power_state.pwrStateResidencyTicks::UNDEFINED    283404000                       # Cumulative time (in ticks) in various power states (Tick)
system.cpu.power_state.pwrStateResidencyTicks::ON    283404000                       # Cumulative time (in ticks) in various power states (Tick)
system.cpu.thread_0.numInsts                        0                       # Number of Instructions committed (Count)
system.cpu.thread_0.numOps                          0                       # Number of Ops committed (Count)
system.cpu.thread_0.numMemRefs                      0                       # Number of Memory References (Count)
system.cpu.workload.numSyscalls                    15                       # Number of system calls (Count)
system.cpu_clk_domain.clock                       500                       # Clock period in ticks (Tick)
system.cpu_voltage_domain.voltage                   1                       # Voltage in Volts (Volt)
system.mem_ctrls.avgPriority_ruby.dir_cntrl0::samples       859.00                       # Average QoS priority value for accepted requests (Count)
system.mem_ctrls.priorityMinLatency      0.000000018750                       # per QoS priority minimum request to response latency (Second)
system.mem_ctrls.priorityMaxLatency      0.000000559000                       # per QoS priority maximum request to response latency (Second)
system.mem_ctrls.numReadWriteTurnArounds            0                       # Number of turnarounds from READ to WRITE (Count)
system.mem_ctrls.numWriteReadTurnArounds            0                       # Number of turnarounds from WRITE to READ (Count)
system.mem_ctrls.numStayReadState                1789                       # Number of times bus staying in READ state (Count)
system.mem_ctrls.numStayWriteState                  0                       # Number of times bus staying in WRITE state (Count)
system.mem_ctrls.readReqs                         859                       # Number of read requests accepted (Count)
system.mem_ctrls.writeReqs                          0                       # Number of write requests accepted (Count)
system.mem_ctrls.readBursts                       859                       # Number of controller read bursts, including those serviced by the write queue (Count)
system.mem_ctrls.writeBursts                        0                       # Number of controller write bursts, including those merged in the write queue (Count)
system.mem_ctrls.servicedByWrQ                      0                       # Number of controller read bursts serviced by the write queue (Count)
system.mem_ctrls.mergedWrBursts                     0                       # Number of controller write bursts merged with an existing one (Count)
system.mem_ctrls.neitherReadNorWriteReqs            0                       # Number of requests that are neither read nor write (Count)
system.mem_ctrls.avgRdQLen                       1.00                       # Average read queue length when enqueuing ((Count/Tick))
system.mem_ctrls.avgWrQLen                       0.00                       # Average write queue length when enqueuing ((Count/Tick))
system.mem_ctrls.numRdRetry                         0                       # Number of times read queue was full causing retry (Count)
system.mem_ctrls.numWrRetry                         0                       # Number of times write queue was full causing retry (Count)
system.mem_ctrls.readPktSize::0                     0                       # Read request sizes (log2) (Count)
system.mem_ctrls.readPktSize::1                     0                       # Read request sizes (log2) (Count)
system.mem_ctrls.readPktSize::2                     0                       # Read request sizes (log2) (Count)
system.mem_ctrls.readPktSize::3                     0                       # Read request sizes (log2) (Count)
system.mem_ctrls.readPktSize::4                     0                       # Read request sizes (log2) (Count)
system.mem_ctrls.readPktSize::5                     0                       # Read request sizes (log2) (Count)
system.mem_ctrls.readPktSize::6                   859                       # Read request sizes (log2) (Count)
system.mem_ctrls.writePktSize::0                    0                       # Write request sizes (log2) (Count)
system.mem_ctrls.writePktSize::1                    0                       # Write request sizes (log2) (Count)
system.mem_ctrls.writePktSize::2                    0                       # Write request sizes (log2) (Count)
system.mem_ctrls.writePktSize::3                    0                       # Write request sizes (log2) (Count)
system.mem_ctrls.writePktSize::4                    0                       # Write request sizes (log2) (Count)
system.mem_ctrls.writePktSize::5                    0                       # Write request sizes (log2) (Count)
system.mem_ctrls.writePktSize::6                    0                       # Write request sizes (log2) (Count)
system.mem_ctrls.rdQLenPdf::0                     858                       # What read queue length does an incoming req see (Count)
system.mem_ctrls.rdQLenPdf::1                       1                       # What read queue length does an incoming req see (Count)
system.mem_ctrls.rdQLenPdf::2                       0                       # What read queue length does an incoming req see (Count)
system.mem_ctrls.rdQLenPdf::3                       0                       # What read queue length does an incoming req see (Count)
system.mem_ctrls.rdQLenPdf::4                       0                       # What read queue length does an incoming req see (Count)
system.mem_ctrls.rdQLenPdf::5                       0                       # What read queue length does an incoming req see (Count)
system.mem_ctrls.rdQLenPdf::6                       0                       # What read queue length does an incoming req see (Count)
system.mem_ctrls.rdQLenPdf::7                       0                       # What read queue length does an incoming req see (Count)
system.mem_ctrls.rdQLenPdf::8                       0                       # What read queue length does an incoming req see (Count)
system.mem_ctrls.rdQLenPdf::9                       0                       # What read queue length does an incoming req see (Count)
system.mem_ctrls.rdQLenPdf::10                      0                       # What read queue length does an incoming req see (Count)
system.mem_ctrls.rdQLenPdf::11                      0                       # What read queue length does an incoming req see (Count)
system.mem_ctrls.rdQLenPdf::12                      0                       # What read queue length does an incoming req see (Count)
system.mem_ctrls.rdQLenPdf::13                      0                       # What read queue length does an incoming req see (Count)
system.mem_ctrls.rdQLenPdf::14                      0                       # What read queue length does an incoming req see (Count)
system.mem_ctrls.rdQLenPdf::15                      0                       # What read queue length does an incoming req see (Count)
system.mem_ctrls.rdQLenPdf::16                      0                       # What read queue length does an incoming req see (Count)
system.mem_ctrls.rdQLenPdf::17                      0                       # What read queue length does an incoming req see (Count)
system.mem_ctrls.rdQLenPdf::18                      0                       # What read queue length does an incoming req see (Count)
system.mem_ctrls.rdQLenPdf::19                      0                       # What read queue length does an incoming req see (Count)
system.mem_ctrls.rdQLenPdf::20                      0                       # What read queue length does an incoming req see (Count)
system.mem_ctrls.rdQLenPdf::21                      0                       # What read queue length does an incoming req see (Count)
system.mem_ctrls.rdQLenPdf::22                      0                       # What read queue length does an incoming req see (Count)
system.mem_ctrls.rdQLenPdf::23                      0                       # What read queue length does an incoming req see (Count)
system.mem_ctrls.rdQLenPdf::24                      0                       # What read queue length does an incoming req see (Count)
system.mem_ctrls.rdQLenPdf::25                      0                       # What read queue length does an incoming req see (Count)
system.mem_ctrls.rdQLenPdf::26                      0                       # What read queue length does an incoming req see (Count)
system.mem_ctrls.rdQLenPdf::27                      0                       # What read queue length does an incoming req see (Count)
system.mem_ctrls.rdQLenPdf::28                      0                       # What read queue length does an incoming req see (Count)
system.mem_ctrls.rdQLenPdf::29                      0                       # What read queue length does an incoming req see (Count)
system.mem_ctrls.rdQLenPdf::30                      0                       # What read queue length does an incoming req see (Count)
system.mem_ctrls.rdQLenPdf::31                      0                       # What read queue length does an incoming req see (Count)
system.mem_ctrls.wrQLenPdf::0                       0                       # What write queue length does an incoming req see (Count)
system.mem_ctrls.wrQLenPdf::1                       0                       # What write queue length does an incoming req see (Count)
system.mem_ctrls.wrQLenPdf::2                       0                       # What write queue length does an incoming req see (Count)
system.mem_ctrls.wrQLenPdf::3                       0                       # What write queue length does an incoming req see (Count)
system.mem_ctrls.wrQLenPdf::4                       0                       # What write queue length does an incoming req see (Count)
system.mem_ctrls.wrQLenPdf::5                       0                       # What write queue length does an incoming req see (Count)
system.mem_ctrls.wrQLenPdf::6                       0                       # What write queue length does an incoming req see (Count)
system.mem_ctrls.wrQLenPdf::7                       0                       # What write queue length does an incoming req see (Count)
system.mem_ctrls.wrQLenPdf::8                       0                       # What write queue length does an incoming req see (Count)
system.mem_ctrls.wrQLenPdf::9                       0                       # What write queue length does an incoming req see (Count)
system.mem_ctrls.wrQLenPdf::10                      0                       # What write queue length does an incoming req see (Count)
system.mem_ctrls.wrQLenPdf::11                      0                       # What write queue length does an incoming req see (Count)
system.mem_ctrls.wrQLenPdf::12                      0                       # What write queue length does an incoming req see (Count)
system.mem_ctrls.wrQLenPdf::13                      0                       # What write queue length does an incoming req see (Count)
system.mem_ctrls.wrQLenPdf::14                      0                       # What write queue length does an incoming req see (Count)
system.mem_ctrls.wrQLenPdf::15                      0                       # What write queue length does an incoming req see (Count)
system.mem_ctrls.wrQLenPdf::16                      0                       # What write queue length does an incoming req see (Count)
system.mem_ctrls.wrQLenPdf::17                      0                       # What write queue length does an incoming req see (Count)
system.mem_ctrls.wrQLenPdf::18                      0                       # What write queue length does an incoming req see (Count)
system.mem_ctrls.wrQLenPdf::19                      0                       # What write queue length does an incoming req see (Count)
system.mem_ctrls.wrQLenPdf::20                      0                       # What write queue length does an incoming req see (Count)
system.mem_ctrls.wrQLenPdf::21                      0                       # What write queue length does an incoming req see (Count)
system.mem_ctrls.wrQLenPdf::22                      0                       # What write queue length does an incoming req see (Count)
system.mem_ctrls.wrQLenPdf::23                      0                       # What write queue length does an incoming req see (Count)
system.mem_ctrls.wrQLenPdf::24                      0                       # What write queue length does an incoming req see (Count)
system.mem_ctrls.wrQLenPdf::25                      0                       # What write queue length does an incoming req see (Count)
system.mem_ctrls.wrQLenPdf::26                      0                       # What write queue length does an incoming req see (Count)
system.mem_ctrls.wrQLenPdf::27                      0                       # What write queue length does an incoming req see (Count)
system.mem_ctrls.wrQLenPdf::28                      0                       # What write queue length does an incoming req see (Count)
system.mem_ctrls.wrQLenPdf::29                      0                       # What write queue length does an incoming req see (Count)
system.mem_ctrls.wrQLenPdf::30                      0                       # What write queue length does an incoming req see (Count)
system.mem_ctrls.wrQLenPdf::31                      0                       # What write queue length does an incoming req see (Count)
system.mem_ctrls.wrQLenPdf::32                      0                       # What write queue length does an incoming req see (Count)
system.mem_ctrls.wrQLenPdf::33                      0                       # What write queue length does an incoming req see (Count)
system.mem_ctrls.wrQLenPdf::34                      0                       # What write queue length does an incoming req see (Count)
system.mem_ctrls.wrQLenPdf::35                      0                       # What write queue length does an incoming req see (Count)
system.mem_ctrls.wrQLenPdf::36                      0                       # What write queue length does an incoming req see (Count)
system.mem_ctrls.wrQLenPdf::37                      0                       # What write queue length does an incoming req see (Count)
system.mem_ctrls.wrQLenPdf::38                      0                       # What write queue length does an incoming req see (Count)
system.mem_ctrls.wrQLenPdf::39                      0                       # What write queue length does an incoming req see (Count)
system.mem_ctrls.wrQLenPdf::40                      0                       # What write queue length does an incoming req see (Count)
system.mem_ctrls.wrQLenPdf::41                      0                       # What write queue length does an incoming req see (Count)
system.mem_ctrls.wrQLenPdf::42                      0                       # What write queue length does an incoming req see (Count)
system.mem_ctrls.wrQLenPdf::43                      0                       # What write queue length does an incoming req see (Count)
system.mem_ctrls.wrQLenPdf::44                      0                       # What write queue length does an incoming req see (Count)
system.mem_ctrls.wrQLenPdf::45                      0                       # What write queue length does an incoming req see (Count)
system.mem_ctrls.wrQLenPdf::46                      0                       # What write queue length does an incoming req see (Count)
system.mem_ctrls.wrQLenPdf::47                      0                       # What write queue length does an incoming req see (Count)
system.mem_ctrls.wrQLenPdf::48                      0                       # What write queue length does an incoming req see (Count)
system.mem_ctrls.wrQLenPdf::49                      0                       # What write queue length does an incoming req see (Count)
system.mem_ctrls.wrQLenPdf::50                      0                       # What write queue length does an incoming req see (Count)
system.mem_ctrls.wrQLenPdf::51                      0                       # What write queue length does an incoming req see (Count)
system.mem_ctrls.wrQLenPdf::52                      0                       # What write queue length does an incoming req see (Count)
system.mem_ctrls.wrQLenPdf::53                      0                       # What write queue length does an incoming req see (Count)
system.mem_ctrls.wrQLenPdf::54                      0                       # What write queue length does an incoming req see (Count)
system.mem_ctrls.wrQLenPdf::55                      0                       # What write queue length does an incoming req see (Count)
system.mem_ctrls.wrQLenPdf::56                      0                       # What write queue length does an incoming req see (Count)
system.mem_ctrls.wrQLenPdf::57                      0                       # What write queue length does an incoming req see (Count)
system.mem_ctrls.wrQLenPdf::58                      0                       # What write queue length does an incoming req see (Count)
system.mem_ctrls.wrQLenPdf::59                      0                       # What write queue length does an incoming req see (Count)
system.mem_ctrls.wrQLenPdf::60                      0                       # What write queue length does an incoming req see (Count)
system.mem_ctrls.wrQLenPdf::61                      0                       # What write queue length does an incoming req see (Count)
system.mem_ctrls.wrQLenPdf::62                      0                       # What write queue length does an incoming req see (Count)
system.mem_ctrls.wrQLenPdf::63                      0                       # What write queue length does an incoming req see (Count)
system.mem_ctrls.bytesReadWrQ                       0                       # Total number of bytes read from write queue (Byte)
system.mem_ctrls.bytesReadSys                   54976                       # Total read bytes from the system interface side (Byte)
system.mem_ctrls.bytesWrittenSys                    0                       # Total written bytes from the system interface side (Byte)
system.mem_ctrls.avgRdBWSys              193984559.14524847                       # Average system read bandwidth in Byte/s ((Byte/Second))
system.mem_ctrls.avgWrBWSys                0.00000000                       # Average system write bandwidth in Byte/s ((Byte/Second))
system.mem_ctrls.totGap                     283346000                       # Total gap between requests (Tick)
system.mem_ctrls.avgGap                     329855.65                       # Average gap between requests ((Tick/Count))
system.mem_ctrls.requestorReadBytes::ruby.dir_cntrl0        54976                       # Per-requestor bytes read from memory (Byte)
system.mem_ctrls.requestorReadRate::ruby.dir_cntrl0 193984559.145248472691                       # Per-requestor bytes read from memory rate ((Byte/Second))
system.mem_ctrls.requestorReadAccesses::ruby.dir_cntrl0          859                       # Per-requestor read serviced memory accesses (Count)
system.mem_ctrls.requestorReadTotalLat::ruby.dir_cntrl0     22003000                       # Per-requestor read total memory access latency (Tick)
system.mem_ctrls.requestorReadAvgLat::ruby.dir_cntrl0     25614.67                       # Per-requestor read average memory access latency ((Tick/Count))
system.mem_ctrls.dram.bytesRead::ruby.dir_cntrl0        54976                       # Number of bytes read from this memory (Byte)
system.mem_ctrls.dram.bytesRead::total          54976                       # Number of bytes read from this memory (Byte)
system.mem_ctrls.dram.numReads::ruby.dir_cntrl0          859                       # Number of read requests responded to by this memory (Count)
system.mem_ctrls.dram.numReads::total             859                       # Number of read requests responded to by this memory (Count)
system.mem_ctrls.dram.bwRead::ruby.dir_cntrl0    193984559                       # Total read bandwidth from this memory ((Byte/Second))
system.mem_ctrls.dram.bwRead::total         193984559                       # Total read bandwidth from this memory ((Byte/Second))
system.mem_ctrls.dram.bwTotal::ruby.dir_cntrl0    193984559                       # Total bandwidth to/from this memory ((Byte/Second))
system.mem_ctrls.dram.bwTotal::total        193984559                       # Total bandwidth to/from this memory ((Byte/Second))
system.mem_ctrls.dram.readBursts                  859                       # Number of DRAM read bursts (Count)
system.mem_ctrls.dram.writeBursts                   0                       # Number of DRAM write bursts (Count)
system.mem_ctrls.dram.perBankRdBursts::0          144                       # Per bank write bursts (Count)
system.mem_ctrls.dram.perBankRdBursts::1           81                       # Per bank write bursts (Count)
system.mem_ctrls.dram.perBankRdBursts::2          107                       # Per bank write bursts (Count)
system.mem_ctrls.dram.perBankRdBursts::3           40                       # Per bank write bursts (Count)
system.mem_ctrls.dram.perBankRdBursts::4           16                       # Per bank write bursts (Count)
system.mem_ctrls.dram.perBankRdBursts::5           71                       # Per bank write bursts (Count)
system.mem_ctrls.dram.perBankRdBursts::6          119                       # Per bank write bursts (Count)
system.mem_ctrls.dram.perBankRdBursts::7           37                       # Per bank write bursts (Count)
system.mem_ctrls.dram.perBankRdBursts::8           33                       # Per bank write bursts (Count)
system.mem_ctrls.dram.perBankRdBursts::9           17                       # Per bank write bursts (Count)
system.mem_ctrls.dram.perBankRdBursts::10           11                       # Per bank write bursts (Count)
system.mem_ctrls.dram.perBankRdBursts::11           20                       # Per bank write bursts (Count)
system.mem_ctrls.dram.perBankRdBursts::12           72                       # Per bank write bursts (Count)
system.mem_ctrls.dram.perBankRdBursts::13           39                       # Per bank write bursts (Count)
system.mem_ctrls.dram.perBankRdBursts::14           50                       # Per bank write bursts (Count)
system.mem_ctrls.dram.perBankRdBursts::15            2                       # Per bank write bursts (Count)
system.mem_ctrls.dram.perBankWrBursts::0            0                       # Per bank write bursts (Count)
system.mem_ctrls.dram.perBankWrBursts::1            0                       # Per bank write bursts (Count)
system.mem_ctrls.dram.perBankWrBursts::2            0                       # Per bank write bursts (Count)
system.mem_ctrls.dram.perBankWrBursts::3            0                       # Per bank write bursts (Count)
system.mem_ctrls.dram.perBankWrBursts::4            0                       # Per bank write bursts (Count)
system.mem_ctrls.dram.perBankWrBursts::5            0                       # Per bank write bursts (Count)
system.mem_ctrls.dram.perBankWrBursts::6            0                       # Per bank write bursts (Count)
system.mem_ctrls.dram.perBankWrBursts::7            0                       # Per bank write bursts (Count)
system.mem_ctrls.dram.perBankWrBursts::8            0                       # Per bank write bursts (Count)
system.mem_ctrls.dram.perBankWrBursts::9            0                       # Per bank write bursts (Count)
system.mem_ctrls.dram.perBankWrBursts::10            0                       # Per bank write bursts (Count)
system.mem_ctrls.dram.perBankWrBursts::11            0                       # Per bank write bursts (Count)
system.mem_ctrls.dram.perBankWrBursts::12            0                       # Per bank write bursts (Count)
system.mem_ctrls.dram.perBankWrBursts::13            0                       # Per bank write bursts (Count)
system.mem_ctrls.dram.perBankWrBursts::14            0                       # Per bank write bursts (Count)
system.mem_ctrls.dram.perBankWrBursts::15            0                       # Per bank write bursts (Count)
system.mem_ctrls.dram.totQLat                 5896750                       # Total ticks spent queuing (Tick)
system.mem_ctrls.dram.totBusLat               4295000                       # Total ticks spent in databus transfers (Tick)
system.mem_ctrls.dram.totMemAccLat           22003000                       # Total ticks spent from burst creation until serviced by the DRAM (Tick)
system.mem_ctrls.dram.avgQLat                 6864.67                       # Average queueing delay per DRAM burst ((Tick/Count))
system.mem_ctrls.dram.avgBusLat               5000.00                       # Average bus latency per DRAM burst ((Tick/Count))
system.mem_ctrls.dram.avgMemAccLat           25614.67                       # Average memory access latency per DRAM burst ((Tick/Count))
system.mem_ctrls.dram.readRowHits                 668                       # Number of row buffer hits during reads (Count)
system.mem_ctrls.dram.writeRowHits                  0                       # Number of row buffer hits during writes (Count)
system.mem_ctrls.dram.readRowHitRate            77.76                       # Row buffer hit rate for reads (Ratio)
system.mem_ctrls.dram.writeRowHitRate             nan                       # Row buffer hit rate for writes (Ratio)
system.mem_ctrls.dram.bytesPerActivate::samples          184                       # Bytes accessed per row activation (Byte)
system.mem_ctrls.dram.bytesPerActivate::mean   286.608696                       # Bytes accessed per row activation (Byte)
system.mem_ctrls.dram.bytesPerActivate::gmean   186.379632                       # Bytes accessed per row activation (Byte)
system.mem_ctrls.dram.bytesPerActivate::stdev   288.006336                       # Bytes accessed per row activation (Byte)
system.mem_ctrls.dram.bytesPerActivate::0-127           51     27.72%     27.72% # Bytes accessed per row activation (Byte)
system.mem_ctrls.dram.bytesPerActivate::128-255           62     33.70%     61.41% # Bytes accessed per row activation (Byte)
system.mem_ctrls.dram.bytesPerActivate::256-383           25     13.59%     75.00% # Bytes accessed per row activation (Byte)
system.mem_ctrls.dram.bytesPerActivate::384-511           10      5.43%     80.43% # Bytes accessed per row activation (Byte)
system.mem_ctrls.dram.bytesPerActivate::512-639            9      4.89%     85.33% # Bytes accessed per row activation (Byte)
system.mem_ctrls.dram.bytesPerActivate::640-767            7      3.80%     89.13% # Bytes accessed per row activation (Byte)
system.mem_ctrls.dram.bytesPerActivate::768-895            4      2.17%     91.30% # Bytes accessed per row activation (Byte)
system.mem_ctrls.dram.bytesPerActivate::896-1023            1      0.54%     91.85% # Bytes accessed per row activation (Byte)
system.mem_ctrls.dram.bytesPerActivate::1024-1151           15      8.15%    100.00% # Bytes accessed per row activation (Byte)
system.mem_ctrls.dram.bytesPerActivate::total          184                       # Bytes accessed per row activation (Byte)
system.mem_ctrls.dram.dramBytesRead             54976                       # Total bytes read (Byte)
system.mem_ctrls.dram.dramBytesWritten              0                       # Total bytes written (Byte)
system.mem_ctrls.dram.avgRdBW              193.984559                       # Average DRAM read bandwidth in MiBytes/s ((Byte/Second))
system.mem_ctrls.dram.avgWrBW                       0                       # Average DRAM write bandwidth in MiBytes/s ((Byte/Second))
system.mem_ctrls.dram.peakBW                 12800.00                       # Theoretical peak bandwidth in MiByte/s ((Byte/Second))
system.mem_ctrls.dram.busUtil                    1.52                       # Data bus utilization in percentage (Ratio)
system.mem_ctrls.dram.busUtilRead                1.52                       # Data bus utilization in percentage for reads (Ratio)
system.mem_ctrls.dram.busUtilWrite               0.00                       # Data bus utilization in percentage for writes (Ratio)
system.mem_ctrls.dram.pageHitRate               77.76                       # Row buffer hit rate, read and write combined (Ratio)
system.mem_ctrls.dram.power_state.pwrStateResidencyTicks::UNDEFINED    283404000                       # Cumulative time (in ticks) in various power states (Tick)
system.mem_ctrls.dram.rank0.actEnergy         1013880                       # Energy for activate commands per rank (pJ) (Joule)
system.mem_ctrls.dram.rank0.preEnergy          523710                       # Energy for precharge commands per rank (pJ) (Joule)
system.mem_ctrls.dram.rank0.readEnergy        4391100                       # Energy for read commands per rank (pJ) (Joule)
system.mem_ctrls.dram.rank0.writeEnergy             0                       # Energy for write commands per rank (pJ) (Joule)
system.mem_ctrls.dram.rank0.refreshEnergy 22127040.000000                       # Energy for refresh commands per rank (pJ) (Joule)
system.mem_ctrls.dram.rank0.actBackEnergy     35680860                       # Energy for active background per rank (pJ) (Joule)
system.mem_ctrls.dram.rank0.preBackEnergy     78780480                       # Energy for precharge background per rank (pJ) (Joule)
system.mem_ctrls.dram.rank0.actPowerDownEnergy            0                       # Energy for active power-down per rank (pJ) (Joule)
system.mem_ctrls.dram.rank0.prePowerDownEnergy            0                       # Energy for precharge power-down per rank (pJ) (Joule)
system.mem_ctrls.dram.rank0.selfRefreshEnergy            0                       # Energy for self refresh per rank (pJ) (Joule)
system.mem_ctrls.dram.rank0.totalEnergy     142517070                       # Total energy per rank (pJ) (Joule)
system.mem_ctrls.dram.rank0.averagePower   502.876000                       # Core power per rank (mW) (Watt)
system.mem_ctrls.dram.rank0.totalIdleTime            0                       # Total Idle time Per DRAM Rank (Tick)
system.mem_ctrls.dram.rank0.pwrStateTime::IDLE    204439500                       # Time in different power states (Tick)
system.mem_ctrls.dram.rank0.pwrStateTime::REF      9360000                       # Time in different power states (Tick)
system.mem_ctrls.dram.rank0.pwrStateTime::SREF            0                       # Time in different power states (Tick)
system.mem_ctrls.dram.rank0.pwrStateTime::PRE_PDN            0                       # Time in different power states (Tick)
system.mem_ctrls.dram.rank0.pwrStateTime::ACT     69604500                       # Time in different power states (Tick)
system.mem_ctrls.dram.rank0.pwrStateTime::ACT_PDN            0                       # Time in different power states (Tick)
system.mem_ctrls.dram.rank1.actEnergy          349860                       # Energy for activate commands per rank (pJ) (Joule)
system.mem_ctrls.dram.rank1.preEnergy          174570                       # Energy for precharge commands per rank (pJ) (Joule)
system.mem_ctrls.dram.rank1.readEnergy        1742160                       # Energy for read commands per rank (pJ) (Joule)
system.mem_ctrls.dram.rank1.writeEnergy             0                       # Energy for write commands per rank (pJ) (Joule)
system.mem_ctrls.dram.rank1.refreshEnergy 22127040.000000                       # Energy for refresh commands per rank (pJ) (Joule)
system.mem_ctrls.dram.rank1.actBackEnergy     29514030                       # Energy for active background per rank (pJ) (Joule)
system.mem_ctrls.dram.rank1.preBackEnergy     83973600                       # Energy for precharge background per rank (pJ) (Joule)
system.mem_ctrls.dram.rank1.actPowerDownEnergy            0                       # Energy for active power-down per rank (pJ) (Joule)
system.mem_ctrls.dram.rank1.prePowerDownEnergy            0                       # Energy for precharge power-down per rank (pJ) (Joule)
system.mem_ctrls.dram.rank1.selfRefreshEnergy            0                       # Energy for self refresh per rank (pJ) (Joule)
system.mem_ctrls.dram.rank1.totalEnergy     137881260                       # Total energy per rank (pJ) (Joule)
system.mem_ctrls.dram.rank1.averagePower   486.518398                       # Core power per rank (mW) (Watt)
system.mem_ctrls.dram.rank1.totalIdleTime            0                       # Total Idle time Per DRAM Rank (Tick)
system.mem_ctrls.dram.rank1.pwrStateTime::IDLE    218017750                       # Time in different power states (Tick)
system.mem_ctrls.dram.rank1.pwrStateTime::REF      9360000                       # Time in different power states (Tick)
system.mem_ctrls.dram.rank1.pwrStateTime::SREF            0                       # Time in different power states (Tick)
system.mem_ctrls.dram.rank1.pwrStateTime::PRE_PDN            0                       # Time in different power states (Tick)
system.mem_ctrls.dram.rank1.pwrStateTime::ACT     56026250                       # Time in different power states (Tick)
system.mem_ctrls.dram.rank1.pwrStateTime::ACT_PDN            0                       # Time in different power states (Tick)
system.mem_ctrls.power_state.pwrStateResidencyTicks::UNDEFINED    283404000                       # Cumulative time (in ticks) in various power states (Tick)
system.ruby.delayHistogram::bucket_size             1                       # delay histogram for all message (Unspecified)
system.ruby.delayHistogram::max_bucket              9                       # delay histogram for all message (Unspecified)
system.ruby.delayHistogram::samples              2958                       # delay histogram for all message (Unspecified)
system.ruby.delayHistogram::mean             0.002705                       # delay histogram for all message (Unspecified)
system.ruby.delayHistogram::stdev            0.147093                       # delay histogram for all message (Unspecified)
system.ruby.delayHistogram               |        2957     99.97%     99.97% |           0      0.00%     99.97% |           0      0.00%     99.97% |           0      0.00%     99.97% |           0      0.00%     99.97% |           0      0.00%     99.97% |           0      0.00%     99.97% |           0      0.00%     99.97% |           1      0.03%    100.00% |           0      0.00%    100.00% # delay histogram for all message (Unspecified)
system.ruby.delayHistogram::total                2958                       # delay histogram for all message (Unspecified)
system.ruby.m_outstandReqHistSeqr::bucket_size            1                       (Unspecified)
system.ruby.m_outstandReqHistSeqr::max_bucket            9                       (Unspecified)
system.ruby.m_outstandReqHistSeqr::samples       230275                       (Unspecified)
system.ruby.m_outstandReqHistSeqr::mean      1.000017                       (Unspecified)
system.ruby.m_outstandReqHistSeqr::gmean     1.000012                       (Unspecified)
system.ruby.m_outstandReqHistSeqr::stdev     0.004168                       (Unspecified)
system.ruby.m_outstandReqHistSeqr        |           0      0.00%      0.00% |      230271    100.00%    100.00% |           4      0.00%    100.00% |           0      0.00%    100.00% |           0      0.00%    100.00% |           0      0.00%    100.00% |           0      0.00%    100.00% |           0      0.00%    100.00% |           0      0.00%    100.00% |           0      0.00%    100.00% (Unspecified)
system.ruby.m_outstandReqHistSeqr::total       230275                       (Unspecified)
system.ruby.m_latencyHistSeqr::bucket_size          128                       (Unspecified)
system.ruby.m_latencyHistSeqr::max_bucket         1279                       (Unspecified)
system.ruby.m_latencyHistSeqr::samples         230275                       (Unspecified)
system.ruby.m_latencyHistSeqr::mean          1.462187                       (Unspecified)
system.ruby.m_latencyHistSeqr::gmean         1.018188                       (Unspecified)
system.ruby.m_latencyHistSeqr::stdev         8.177512                       (Unspecified)
system.ruby.m_latencyHistSeqr            |      230083     99.92%     99.92% |         183      0.08%    100.00% |           0      0.00%    100.00% |           0      0.00%    100.00% |           8      0.00%    100.00% |           1      0.00%    100.00% |           0      0.00%    100.00% |           0      0.00%    100.00% |           0      0.00%    100.00% |           0      0.00%    100.00% (Unspecified)
system.ruby.m_latencyHistSeqr::total           230275                       (Unspecified)
system.ruby.m_hitLatencyHistSeqr::bucket_size            1                       (Unspecified)
system.ruby.m_hitLatencyHistSeqr::max_bucket            9                       (Unspecified)
system.ruby.m_hitLatencyHistSeqr::samples       229404                       (Unspecified)
system.ruby.m_hitLatencyHistSeqr::mean              1                       (Unspecified)
system.ruby.m_hitLatencyHistSeqr::gmean             1                       (Unspecified)
system.ruby.m_hitLatencyHistSeqr         |           0      0.00%      0.00% |      229404    100.00%    100.00% |           0      0.00%    100.00% |           0      0.00%    100.00% |           0      0.00%    100.00% |           0      0.00%    100.00% |           0      0.00%    100.00% |           0      0.00%    100.00% |           0      0.00%    100.00% |           0      0.00%    100.00% (Unspecified)
system.ruby.m_hitLatencyHistSeqr::total        229404                       (Unspecified)
system.ruby.m_missLatencyHistSeqr::bucket_size          128                       (Unspecified)
system.ruby.m_missLatencyHistSeqr::max_bucket         1279                       (Unspecified)
system.ruby.m_missLatencyHistSeqr::samples          871                       (Unspecified)
system.ruby.m_missLatencyHistSeqr::mean    123.192882                       (Unspecified)
system.ruby.m_missLatencyHistSeqr::gmean   117.357806                       (Unspecified)
system.ruby.m_missLatencyHistSeqr::stdev    52.991168                       (Unspecified)
system.ruby.m_missLatencyHistSeqr        |         679     77.96%     77.96% |         183     21.01%     98.97% |           0      0.00%     98.97% |           0      0.00%     98.97% |           8      0.92%     99.89% |           1      0.11%    100.00% |           0      0.00%    100.00% |           0      0.00%    100.00% |           0      0.00%    100.00% |           0      0.00%    100.00% (Unspecified)
system.ruby.m_missLatencyHistSeqr::total          871                       (Unspecified)
system.ruby.delayVCHist.vnet_0::bucket_size            1                       # delay histogram for vnet_0 (Unspecified)
system.ruby.delayVCHist.vnet_0::max_bucket            9                       # delay histogram for vnet_0 (Unspecified)
system.ruby.delayVCHist.vnet_0::samples          1226                       # delay histogram for vnet_0 (Unspecified)
system.ruby.delayVCHist.vnet_0::mean         0.006525                       # delay histogram for vnet_0 (Unspecified)
system.ruby.delayVCHist.vnet_0::stdev        0.228478                       # delay histogram for vnet_0 (Unspecified)
system.ruby.delayVCHist.vnet_0           |        1225     99.92%     99.92% |           0      0.00%     99.92% |           0      0.00%     99.92% |           0      0.00%     99.92% |           0      0.00%     99.92% |           0      0.00%     99.92% |           0      0.00%     99.92% |           0      0.00%     99.92% |           1      0.08%    100.00% |           0      0.00%    100.00% # delay histogram for vnet_0 (Unspecified)
system.ruby.delayVCHist.vnet_0::total            1226                       # delay histogram for vnet_0 (Unspecified)
system.ruby.delayVCHist.vnet_1::bucket_size            1                       # delay histogram for vnet_1 (Unspecified)
system.ruby.delayVCHist.vnet_1::max_bucket            9                       # delay histogram for vnet_1 (Unspecified)
system.ruby.delayVCHist.vnet_1::samples          1732                       # delay histogram for vnet_1 (Unspecified)
system.ruby.delayVCHist.vnet_1           |        1732    100.00%    100.00% |           0      0.00%    100.00% |           0      0.00%    100.00% |           0      0.00%    100.00% |           0      0.00%    100.00% |           0      0.00%    100.00% |           0      0.00%    100.00% |           0      0.00%    100.00% |           0      0.00%    100.00% |           0      0.00%    100.00% # delay histogram for vnet_1 (Unspecified)
system.ruby.delayVCHist.vnet_1::total            1732                       # delay histogram for vnet_1 (Unspecified)
system.ruby.Directory_Controller.Fetch            859      0.00%      0.00% (Unspecified)
system.ruby.Directory_Controller.Memory_Data          859      0.00%      0.00% (Unspecified)
system.ruby.Directory_Controller.I.Fetch          859      0.00%      0.00% (Unspecified)
system.ruby.Directory_Controller.IM.Memory_Data          859      0.00%      0.00% (Unspecified)
system.ruby.L1Cache_Controller.Load             11853      0.00%      0.00% (Unspecified)
system.ruby.L1Cache_Controller.Ifetch          205835      0.00%      0.00% (Unspecified)
system.ruby.L1Cache_Controller.Store            12587      0.00%      0.00% (Unspecified)
system.ruby.L1Cache_Controller.L1_Replacement          144      0.00%      0.00% (Unspecified)
system.ruby.L1Cache_Controller.Data_Exclusive          132      0.00%      0.00% (Unspecified)
system.ruby.L1Cache_Controller.Data_all_Acks          739      0.00%      0.00% (Unspecified)
system.ruby.L1Cache_Controller.WB_Ack               2      0.00%      0.00% (Unspecified)
system.ruby.L1Cache_Controller.NP.Load            132      0.00%      0.00% (Unspecified)
system.ruby.L1Cache_Controller.NP.Ifetch          518      0.00%      0.00% (Unspecified)
system.ruby.L1Cache_Controller.NP.Store           221      0.00%      0.00% (Unspecified)
system.ruby.L1Cache_Controller.S.Ifetch        205317      0.00%      0.00% (Unspecified)
system.ruby.L1Cache_Controller.S.L1_Replacement          142      0.00%      0.00% (Unspecified)
system.ruby.L1Cache_Controller.E.Load             483      0.00%      0.00% (Unspecified)
system.ruby.L1Cache_Controller.E.Store             26      0.00%      0.00% (Unspecified)
system.ruby.L1Cache_Controller.E.L1_Replacement            1      0.00%      0.00% (Unspecified)
system.ruby.L1Cache_Controller.M.Load           11238      0.00%      0.00% (Unspecified)
system.ruby.L1Cache_Controller.M.Store          12340      0.00%      0.00% (Unspecified)
system.ruby.L1Cache_Controller.M.L1_Replacement            1      0.00%      0.00% (Unspecified)
system.ruby.L1Cache_Controller.IS.Data_Exclusive          132      0.00%      0.00% (Unspecified)
system.ruby.L1Cache_Controller.IS.Data_all_Acks          518      0.00%      0.00% (Unspecified)
system.ruby.L1Cache_Controller.IM.Data_all_Acks          221      0.00%      0.00% (Unspecified)
system.ruby.L1Cache_Controller.M_I.WB_Ack            2      0.00%      0.00% (Unspecified)
system.ruby.L2Cache_Controller.L1_GET_INSTR          518      0.00%      0.00% (Unspecified)
system.ruby.L2Cache_Controller.L1_GETS            132      0.00%      0.00% (Unspecified)
system.ruby.L2Cache_Controller.L1_GETX            221      0.00%      0.00% (Unspecified)
system.ruby.L2Cache_Controller.L1_PUTX              2      0.00%      0.00% (Unspecified)
system.ruby.L2Cache_Controller.Mem_Data           859      0.00%      0.00% (Unspecified)
system.ruby.L2Cache_Controller.Exclusive_Unblock          353      0.00%      0.00% (Unspecified)
system.ruby.L2Cache_Controller.NP.L1_GET_INSTR          506      0.00%      0.00% (Unspecified)
system.ruby.L2Cache_Controller.NP.L1_GETS          132      0.00%      0.00% (Unspecified)
system.ruby.L2Cache_Controller.NP.L1_GETX          221      0.00%      0.00% (Unspecified)
system.ruby.L2Cache_Controller.SS.L1_GET_INSTR           12      0.00%      0.00% (Unspecified)
system.ruby.L2Cache_Controller.MT.L1_PUTX            2      0.00%      0.00% (Unspecified)
system.ruby.L2Cache_Controller.ISS.Mem_Data          132      0.00%      0.00% (Unspecified)
system.ruby.L2Cache_Controller.IS.Mem_Data          506      0.00%      0.00% (Unspecified)
system.ruby.L2Cache_Controller.IM.Mem_Data          221      0.00%      0.00% (Unspecified)
system.ruby.L2Cache_Controller.MT_MB.Exclusive_Unblock          353      0.00%      0.00% (Unspecified)
system.ruby.RequestType.LD.latency_hist_seqr::bucket_size           64                       (Unspecified)
system.ruby.RequestType.LD.latency_hist_seqr::max_bucket          639                       (Unspecified)
system.ruby.RequestType.LD.latency_hist_seqr::samples        11853                       (Unspecified)
system.ruby.RequestType.LD.latency_hist_seqr::mean     2.408842                       (Unspecified)
system.ruby.RequestType.LD.latency_hist_seqr::gmean     1.055151                       (Unspecified)
system.ruby.RequestType.LD.latency_hist_seqr::stdev    14.085352                       (Unspecified)
system.ruby.RequestType.LD.latency_hist_seqr |       11721     98.89%     98.89% |          87      0.73%     99.62% |          44      0.37%     99.99% |           0      0.00%     99.99% |           0      0.00%     99.99% |           0      0.00%     99.99% |           0      0.00%     99.99% |           0      0.00%     99.99% |           0      0.00%     99.99% |           1      0.01%    100.00% (Unspecified)
system.ruby.RequestType.LD.latency_hist_seqr::total        11853                       (Unspecified)
system.ruby.RequestType.LD.hit_latency_hist_seqr::bucket_size            1                       (Unspecified)
system.ruby.RequestType.LD.hit_latency_hist_seqr::max_bucket            9                       (Unspecified)
system.ruby.RequestType.LD.hit_latency_hist_seqr::samples        11721                       (Unspecified)
system.ruby.RequestType.LD.hit_latency_hist_seqr::mean            1                       (Unspecified)
system.ruby.RequestType.LD.hit_latency_hist_seqr::gmean            1                       (Unspecified)
system.ruby.RequestType.LD.hit_latency_hist_seqr |           0      0.00%      0.00% |       11721    100.00%    100.00% |           0      0.00%    100.00% |           0      0.00%    100.00% |           0      0.00%    100.00% |           0      0.00%    100.00% |           0      0.00%    100.00% |           0      0.00%    100.00% |           0      0.00%    100.00% |           0      0.00%    100.00% (Unspecified)
system.ruby.RequestType.LD.hit_latency_hist_seqr::total        11721                       (Unspecified)
system.ruby.RequestType.LD.miss_latency_hist_seqr::bucket_size           64                       (Unspecified)
system.ruby.RequestType.LD.miss_latency_hist_seqr::max_bucket          639                       (Unspecified)
system.ruby.RequestType.LD.miss_latency_hist_seqr::samples          132                       (Unspecified)
system.ruby.RequestType.LD.miss_latency_hist_seqr::mean   127.507576                       (Unspecified)
system.ruby.RequestType.LD.miss_latency_hist_seqr::gmean   124.037709                       (Unspecified)
system.ruby.RequestType.LD.miss_latency_hist_seqr::stdev    44.753693                       (Unspecified)
system.ruby.RequestType.LD.miss_latency_hist_seqr |           0      0.00%      0.00% |          87     65.91%     65.91% |          44     33.33%     99.24% |           0      0.00%     99.24% |           0      0.00%     99.24% |           0      0.00%     99.24% |           0      0.00%     99.24% |           0      0.00%     99.24% |           0      0.00%     99.24% |           1      0.76%    100.00% (Unspecified)
system.ruby.RequestType.LD.miss_latency_hist_seqr::total          132                       (Unspecified)
system.ruby.RequestType.ST.latency_hist_seqr::bucket_size           64                       (Unspecified)
system.ruby.RequestType.ST.latency_hist_seqr::max_bucket          639                       (Unspecified)
system.ruby.RequestType.ST.latency_hist_seqr::samples        12538                       (Unspecified)
system.ruby.RequestType.ST.latency_hist_seqr::mean     3.060376                       (Unspecified)
system.ruby.RequestType.ST.latency_hist_seqr::gmean     1.086392                       (Unspecified)
system.ruby.RequestType.ST.latency_hist_seqr::stdev    16.138902                       (Unspecified)
system.ruby.RequestType.ST.latency_hist_seqr |       12320     98.26%     98.26% |         181      1.44%     99.70% |          36      0.29%     99.99% |           0      0.00%     99.99% |           0      0.00%     99.99% |           0      0.00%     99.99% |           0      0.00%     99.99% |           0      0.00%     99.99% |           1      0.01%    100.00% |           0      0.00%    100.00% (Unspecified)
system.ruby.RequestType.ST.latency_hist_seqr::total        12538                       (Unspecified)
system.ruby.RequestType.ST.hit_latency_hist_seqr::bucket_size            1                       (Unspecified)
system.ruby.RequestType.ST.hit_latency_hist_seqr::max_bucket            9                       (Unspecified)
system.ruby.RequestType.ST.hit_latency_hist_seqr::samples        12320                       (Unspecified)
system.ruby.RequestType.ST.hit_latency_hist_seqr::mean            1                       (Unspecified)
system.ruby.RequestType.ST.hit_latency_hist_seqr::gmean            1                       (Unspecified)
system.ruby.RequestType.ST.hit_latency_hist_seqr |           0      0.00%      0.00% |       12320    100.00%    100.00% |           0      0.00%    100.00% |           0      0.00%    100.00% |           0      0.00%    100.00% |           0      0.00%    100.00% |           0      0.00%    100.00% |           0      0.00%    100.00% |           0      0.00%    100.00% |           0      0.00%    100.00% (Unspecified)
system.ruby.RequestType.ST.hit_latency_hist_seqr::total        12320                       (Unspecified)
system.ruby.RequestType.ST.miss_latency_hist_seqr::bucket_size           64                       (Unspecified)
system.ruby.RequestType.ST.miss_latency_hist_seqr::max_bucket          639                       (Unspecified)
system.ruby.RequestType.ST.miss_latency_hist_seqr::samples          218                       (Unspecified)
system.ruby.RequestType.ST.miss_latency_hist_seqr::mean   119.500000                       (Unspecified)
system.ruby.RequestType.ST.miss_latency_hist_seqr::gmean   117.415244                       (Unspecified)
system.ruby.RequestType.ST.miss_latency_hist_seqr::stdev    34.444539                       (Unspecified)
system.ruby.RequestType.ST.miss_latency_hist_seqr |           0      0.00%      0.00% |         181     83.03%     83.03% |          36     16.51%     99.54% |           0      0.00%     99.54% |           0      0.00%     99.54% |           0      0.00%     99.54% |           0      0.00%     99.54% |           0      0.00%     99.54% |           1      0.46%    100.00% |           0      0.00%    100.00% (Unspecified)
system.ruby.RequestType.ST.miss_latency_hist_seqr::total          218                       (Unspecified)
system.ruby.RequestType.IFETCH.latency_hist_seqr::bucket_size          128                       (Unspecified)
system.ruby.RequestType.IFETCH.latency_hist_seqr::max_bucket         1279                       (Unspecified)
system.ruby.RequestType.IFETCH.latency_hist_seqr::samples       205835                       (Unspecified)
system.ruby.RequestType.IFETCH.latency_hist_seqr::mean     1.308699                       (Unspecified)
system.ruby.RequestType.IFETCH.latency_hist_seqr::gmean     1.012028                       (Unspecified)
system.ruby.RequestType.IFETCH.latency_hist_seqr::stdev     6.861898                       (Unspecified)
system.ruby.RequestType.IFETCH.latency_hist_seqr |      205726     99.95%     99.95% |         102      0.05%    100.00% |           0      0.00%    100.00% |           0      0.00%    100.00% |           6      0.00%    100.00% |           1      0.00%    100.00% |           0      0.00%    100.00% |           0      0.00%    100.00% |           0      0.00%    100.00% |           0      0.00%    100.00% (Unspecified)
system.ruby.RequestType.IFETCH.latency_hist_seqr::total       205835                       (Unspecified)
system.ruby.RequestType.IFETCH.hit_latency_hist_seqr::bucket_size            1                       (Unspecified)
system.ruby.RequestType.IFETCH.hit_latency_hist_seqr::max_bucket            9                       (Unspecified)
system.ruby.RequestType.IFETCH.hit_latency_hist_seqr::samples       205317                       (Unspecified)
system.ruby.RequestType.IFETCH.hit_latency_hist_seqr::mean            1                       (Unspecified)
system.ruby.RequestType.IFETCH.hit_latency_hist_seqr::gmean            1                       (Unspecified)
system.ruby.RequestType.IFETCH.hit_latency_hist_seqr |           0      0.00%      0.00% |      205317    100.00%    100.00% |           0      0.00%    100.00% |           0      0.00%    100.00% |           0      0.00%    100.00% |           0      0.00%    100.00% |           0      0.00%    100.00% |           0      0.00%    100.00% |           0      0.00%    100.00% |           0      0.00%    100.00% (Unspecified)
system.ruby.RequestType.IFETCH.hit_latency_hist_seqr::total       205317                       (Unspecified)
system.ruby.RequestType.IFETCH.miss_latency_hist_seqr::bucket_size          128                       (Unspecified)
system.ruby.RequestType.IFETCH.miss_latency_hist_seqr::max_bucket         1279                       (Unspecified)
system.ruby.RequestType.IFETCH.miss_latency_hist_seqr::samples          518                       (Unspecified)
system.ruby.RequestType.IFETCH.miss_latency_hist_seqr::mean   123.666023                       (Unspecified)
system.ruby.RequestType.IFETCH.miss_latency_hist_seqr::gmean   115.678762                       (Unspecified)
system.ruby.RequestType.IFETCH.miss_latency_hist_seqr::stdev    60.894671                       (Unspecified)
system.ruby.RequestType.IFETCH.miss_latency_hist_seqr |         409     78.96%     78.96% |         102     19.69%     98.65% |           0      0.00%     98.65% |           0      0.00%     98.65% |           6      1.16%     99.81% |           1      0.19%    100.00% |           0      0.00%    100.00% |           0      0.00%    100.00% |           0      0.00%    100.00% |           0      0.00%    100.00% (Unspecified)
system.ruby.RequestType.IFETCH.miss_latency_hist_seqr::total          518                       (Unspecified)
system.ruby.RequestType.RMW_Read.latency_hist_seqr::bucket_size           16                       (Unspecified)
system.ruby.RequestType.RMW_Read.latency_hist_seqr::max_bucket          159                       (Unspecified)
system.ruby.RequestType.RMW_Read.latency_hist_seqr::samples           21                       (Unspecified)
system.ruby.RequestType.RMW_Read.latency_hist_seqr::mean    12.761905                       (Unspecified)
system.ruby.RequestType.RMW_Read.latency_hist_seqr::gmean     1.582324                       (Unspecified)
system.ruby.RequestType.RMW_Read.latency_hist_seqr::stdev    37.392385                       (Unspecified)
system.ruby.RequestType.RMW_Read.latency_hist_seqr |          19     90.48%     90.48% |           0      0.00%     90.48% |           0      0.00%     90.48% |           0      0.00%     90.48% |           0      0.00%     90.48% |           0      0.00%     90.48% |           1      4.76%     95.24% |           0      0.00%     95.24% |           1      4.76%    100.00% |           0      0.00%    100.00% (Unspecified)
system.ruby.RequestType.RMW_Read.latency_hist_seqr::total           21                       (Unspecified)
system.ruby.RequestType.RMW_Read.hit_latency_hist_seqr::bucket_size            1                       (Unspecified)
system.ruby.RequestType.RMW_Read.hit_latency_hist_seqr::max_bucket            9                       (Unspecified)
system.ruby.RequestType.RMW_Read.hit_latency_hist_seqr::samples           19                       (Unspecified)
system.ruby.RequestType.RMW_Read.hit_latency_hist_seqr::mean            1                       (Unspecified)
system.ruby.RequestType.RMW_Read.hit_latency_hist_seqr::gmean            1                       (Unspecified)
system.ruby.RequestType.RMW_Read.hit_latency_hist_seqr |           0      0.00%      0.00% |          19    100.00%    100.00% |           0      0.00%    100.00% |           0      0.00%    100.00% |           0      0.00%    100.00% |           0      0.00%    100.00% |           0      0.00%    100.00% |           0      0.00%    100.00% |           0      0.00%    100.00% |           0      0.00%    100.00% (Unspecified)
system.ruby.RequestType.RMW_Read.hit_latency_hist_seqr::total           19                       (Unspecified)
system.ruby.RequestType.RMW_Read.miss_latency_hist_seqr::bucket_size           16                       (Unspecified)
system.ruby.RequestType.RMW_Read.miss_latency_hist_seqr::max_bucket          159                       (Unspecified)
system.ruby.RequestType.RMW_Read.miss_latency_hist_seqr::samples            2                       (Unspecified)
system.ruby.RequestType.RMW_Read.miss_latency_hist_seqr::mean   124.500000                       (Unspecified)
system.ruby.RequestType.RMW_Read.miss_latency_hist_seqr::gmean   123.765908                       (Unspecified)
system.ruby.RequestType.RMW_Read.miss_latency_hist_seqr::stdev    19.091883                       (Unspecified)
system.ruby.RequestType.RMW_Read.miss_latency_hist_seqr |           0      0.00%      0.00% |           0      0.00%      0.00% |           0      0.00%      0.00% |           0      0.00%      0.00% |           0      0.00%      0.00% |           0      0.00%      0.00% |           1     50.00%     50.00% |           0      0.00%     50.00% |           1     50.00%    100.00% |           0      0.00%    100.00% (Unspecified)
system.ruby.RequestType.RMW_Read.miss_latency_hist_seqr::total            2                       (Unspecified)
system.ruby.RequestType.Locked_RMW_Read.latency_hist_seqr::bucket_size           16                       (Unspecified)
system.ruby.RequestType.Locked_RMW_Read.latency_hist_seqr::max_bucket          159                       (Unspecified)
system.ruby.RequestType.Locked_RMW_Read.latency_hist_seqr::samples           14                       (Unspecified)
system.ruby.RequestType.Locked_RMW_Read.latency_hist_seqr::mean     8.857143                       (Unspecified)
system.ruby.RequestType.Locked_RMW_Read.latency_hist_seqr::gmean     1.399892                       (Unspecified)
system.ruby.RequestType.Locked_RMW_Read.latency_hist_seqr::stdev    29.398737                       (Unspecified)
system.ruby.RequestType.Locked_RMW_Read.latency_hist_seqr |          13     92.86%     92.86% |           0      0.00%     92.86% |           0      0.00%     92.86% |           0      0.00%     92.86% |           0      0.00%     92.86% |           0      0.00%     92.86% |           1      7.14%    100.00% |           0      0.00%    100.00% |           0      0.00%    100.00% |           0      0.00%    100.00% (Unspecified)
system.ruby.RequestType.Locked_RMW_Read.latency_hist_seqr::total           14                       (Unspecified)
[...]
system.ruby.network.routers1.throttle00.total_msg_bytes        71720                       # Total number of bytes forwarded by this switch (Byte)
system.ruby.network.routers1.throttle00.total_data_msg_bytes        55040                       # Total number of data bytes forwarded by this switch (Byte)
system.ruby.network.routers1.throttle00.total_msg_wait_time            0                       # Total time spend forwarding messages (Tick)
system.ruby.network.routers1.throttle00.total_stall_cy            0                       # Total time spent blocked on any output link (Cycle)
system.ruby.network.routers1.throttle00.total_bw_sat_cy         3440                       # Total time bandwidth was saturated on any output link (Cycle)
system.ruby.network.routers1.throttle00.avg_msg_wait_time            0                       # Average time a message took to be forwarded (Ratio)
system.ruby.network.routers1.throttle00.avg_bandwidth         0.24                       # Average bandwidth (GB/s) (Ratio)
system.ruby.network.routers1.throttle00.avg_useful_bandwidth         0.18                       # Average useful (only data) bandwidth (GB/s) (Ratio)
system.ruby.network.routers1.throttle00.msg_count.Control::0          871                       (Unspecified)
system.ruby.network.routers1.throttle00.msg_bytes.Control::0         6968                       (Unspecified)
system.ruby.network.routers1.throttle00.msg_count.Response_Data::1          859                       (Unspecified)
system.ruby.network.routers1.throttle00.msg_bytes.Response_Data::1        61848                       (Unspecified)
system.ruby.network.routers1.throttle00.msg_count.Response_Control::2          353                       (Unspecified)
system.ruby.network.routers1.throttle00.msg_bytes.Response_Control::2         2824                       (Unspecified)
system.ruby.network.routers1.throttle00.msg_count.Writeback_Data::0            1                       (Unspecified)
system.ruby.network.routers1.throttle00.msg_bytes.Writeback_Data::0           72                       (Unspecified)
system.ruby.network.routers1.throttle00.msg_count.Writeback_Control::0            1                       (Unspecified)
system.ruby.network.routers1.throttle00.msg_bytes.Writeback_Control::0            8                       (Unspecified)
system.ruby.network.routers1.throttle01.acc_link_utilization         4350                       # Accumulated link utilization system.ruby.network.int_links1 (Count)
system.ruby.network.routers1.throttle01.link_utilization     0.767456                       # Average link utilization (Ratio)
system.ruby.network.routers1.throttle01.total_msg_count         1732                       # Total number of messages forwarded by this switch (Count)
system.ruby.network.routers1.throttle01.total_msg_bytes        69600                       # Total number of bytes forwarded by this switch (Byte)
system.ruby.network.routers1.throttle01.total_data_msg_bytes        55744                       # Total number of data bytes forwarded by this switch (Byte)
system.ruby.network.routers1.throttle01.total_msg_wait_time            0                       # Total time spend forwarding messages (Tick)
system.ruby.network.routers1.throttle01.total_stall_cy            0                       # Total time spent blocked on any output link (Cycle)
system.ruby.network.routers1.throttle01.total_bw_sat_cy         3484                       # Total time bandwidth was saturated on any output link (Cycle)
system.ruby.network.routers1.throttle01.avg_msg_wait_time            0                       # Average time a message took to be forwarded (Ratio)
system.ruby.network.routers1.throttle01.avg_bandwidth         0.23                       # Average bandwidth (GB/s) (Ratio)
system.ruby.network.routers1.throttle01.avg_useful_bandwidth         0.18                       # Average useful (only data) bandwidth (GB/s) (Ratio)
system.ruby.network.routers1.throttle01.msg_count.Control::0          859                       (Unspecified)
system.ruby.network.routers1.throttle01.msg_bytes.Control::0         6872                       (Unspecified)
system.ruby.network.routers1.throttle01.msg_count.Response_Data::1          871                       (Unspecified)
system.ruby.network.routers1.throttle01.msg_bytes.Response_Data::1        62712                       (Unspecified)
system.ruby.network.routers1.throttle01.msg_count.Response_Control::1            2                       (Unspecified)
system.ruby.network.routers1.throttle01.msg_bytes.Response_Control::1           16                       (Unspecified)
system.ruby.network.routers2.percent_links_utilized     0.378876                       (Unspecified)
system.ruby.network.routers2.msg_count.Control::0          859                       (Unspecified)
system.ruby.network.routers2.msg_bytes.Control::0         6872                       (Unspecified)
system.ruby.network.routers2.msg_count.Response_Data::1          859                       (Unspecified)
system.ruby.network.routers2.msg_bytes.Response_Data::1        61848                       (Unspecified)
system.ruby.network.routers2.port_buffers0.m_msg_count          859                       # Number of messages passed the buffer (Count)
system.ruby.network.routers2.port_buffers0.m_buf_msgs     0.001516                       # Average number of messages in buffer ((Count/Tick))
system.ruby.network.routers2.port_buffers4.m_msg_count          859                       # Number of messages passed the buffer (Count)
system.ruby.network.routers2.port_buffers4.m_buf_msgs     0.001516                       # Average number of messages in buffer ((Count/Tick))
system.ruby.network.routers2.power_state.pwrStateResidencyTicks::UNDEFINED    283404000                       # Cumulative time (in ticks) in various power states (Tick)
system.ruby.network.routers2.throttle00.acc_link_utilization   429.500000                       # Accumulated link utilization system.ruby.network.ext_links2 (Count)
system.ruby.network.routers2.throttle00.link_utilization     0.075775                       # Average link utilization (Ratio)
system.ruby.network.routers2.throttle00.total_msg_count          859                       # Total number of messages forwarded by this switch (Count)
system.ruby.network.routers2.throttle00.total_msg_bytes         6872                       # Total number of bytes forwarded by this switch (Byte)
system.ruby.network.routers2.throttle00.total_data_msg_bytes            0                       # Total number of data bytes forwarded by this switch (Byte)
system.ruby.network.routers2.throttle00.total_msg_wait_time            0                       # Total time spend forwarding messages (Tick)
system.ruby.network.routers2.throttle00.total_stall_cy            0                       # Total time spent blocked on any output link (Cycle)
system.ruby.network.routers2.throttle00.total_bw_sat_cy            0                       # Total time bandwidth was saturated on any output link (Cycle)
system.ruby.network.routers2.throttle00.avg_msg_wait_time            0                       # Average time a message took to be forwarded (Ratio)
system.ruby.network.routers2.throttle00.avg_bandwidth         0.02                       # Average bandwidth (GB/s) (Ratio)
system.ruby.network.routers2.throttle00.avg_useful_bandwidth         0.00                       # Average useful (only data) bandwidth (GB/s) (Ratio)
system.ruby.network.routers2.throttle00.msg_count.Control::0          859                       (Unspecified)
system.ruby.network.routers2.throttle00.msg_bytes.Control::0         6872                       (Unspecified)
system.ruby.network.routers2.throttle01.acc_link_utilization  3865.500000                       # Accumulated link utilization system.ruby.network.int_links2 (Count)
system.ruby.network.routers2.throttle01.link_utilization     0.681977                       # Average link utilization (Ratio)
system.ruby.network.routers2.throttle01.total_msg_count          859                       # Total number of messages forwarded by this switch (Count)
system.ruby.network.routers2.throttle01.total_msg_bytes        61848                       # Total number of bytes forwarded by this switch (Byte)
system.ruby.network.routers2.throttle01.total_data_msg_bytes        54976                       # Total number of data bytes forwarded by this switch (Byte)
system.ruby.network.routers2.throttle01.total_msg_wait_time            0                       # Total time spend forwarding messages (Tick)
system.ruby.network.routers2.throttle01.total_stall_cy            0                       # Total time spent blocked on any output link (Cycle)
system.ruby.network.routers2.throttle01.total_bw_sat_cy         3436                       # Total time bandwidth was saturated on any output link (Cycle)
system.ruby.network.routers2.throttle01.avg_msg_wait_time            0                       # Average time a message took to be forwarded (Ratio)
system.ruby.network.routers2.throttle01.avg_bandwidth         0.20                       # Average bandwidth (GB/s) (Ratio)
system.ruby.network.routers2.throttle01.avg_useful_bandwidth         0.18                       # Average useful (only data) bandwidth (GB/s) (Ratio)
system.ruby.network.routers2.throttle01.msg_count.Response_Data::1          859                       (Unspecified)
system.ruby.network.routers2.throttle01.msg_bytes.Response_Data::1        61848                       (Unspecified)
system.ruby.network.routers3.percent_links_utilized     0.519429                       (Unspecified)
system.ruby.network.routers3.msg_count.Control::0         1730                       (Unspecified)
system.ruby.network.routers3.msg_bytes.Control::0        13840                       (Unspecified)
system.ruby.network.routers3.msg_count.Response_Data::1         1730                       (Unspecified)
system.ruby.network.routers3.msg_bytes.Response_Data::1       124560                       (Unspecified)
system.ruby.network.routers3.msg_count.Response_Control::1            2                       (Unspecified)
system.ruby.network.routers3.msg_count.Response_Control::2          353                       (Unspecified)
system.ruby.network.routers3.msg_bytes.Response_Control::1           16                       (Unspecified)
system.ruby.network.routers3.msg_bytes.Response_Control::2         2824                       (Unspecified)
system.ruby.network.routers3.msg_count.Writeback_Data::0            1                       (Unspecified)
system.ruby.network.routers3.msg_bytes.Writeback_Data::0           72                       (Unspecified)
system.ruby.network.routers3.msg_count.Writeback_Control::0            1                       (Unspecified)
system.ruby.network.routers3.msg_bytes.Writeback_Control::0            8                       (Unspecified)
system.ruby.network.routers3.port_buffers1.m_msg_count          873                       # Number of messages passed the buffer (Count)
system.ruby.network.routers3.port_buffers1.m_buf_msgs     0.001540                       # Average number of messages in buffer ((Count/Tick))
system.ruby.network.routers3.port_buffers3.m_msg_count          873                       # Number of messages passed the buffer (Count)
system.ruby.network.routers3.port_buffers3.m_buf_msgs     0.001540                       # Average number of messages in buffer ((Count/Tick))
system.ruby.network.routers3.port_buffers4.m_msg_count          859                       # Number of messages passed the buffer (Count)
system.ruby.network.routers3.port_buffers4.m_buf_msgs     0.001516                       # Average number of messages in buffer ((Count/Tick))
system.ruby.network.routers3.port_buffers5.m_msg_count          353                       # Number of messages passed the buffer (Count)
system.ruby.network.routers3.port_buffers5.m_buf_msgs     0.000623                       # Average number of messages in buffer ((Count/Tick))
system.ruby.network.routers3.port_buffers6.m_msg_count          859                       # Number of messages passed the buffer (Count)
system.ruby.network.routers3.port_buffers6.m_buf_msgs     0.001516                       # Average number of messages in buffer ((Count/Tick))
system.ruby.network.routers3.power_state.pwrStateResidencyTicks::UNDEFINED    283404000                       # Cumulative time (in ticks) in various power states (Tick)
system.ruby.network.routers3.throttle00.acc_link_utilization  3920.500000                       # Accumulated link utilization system.ruby.network.int_links3 (Count)
system.ruby.network.routers3.throttle00.link_utilization     0.691680                       # Average link utilization (Ratio)
system.ruby.network.routers3.throttle00.total_msg_count          873                       # Total number of messages forwarded by this switch (Count)
system.ruby.network.routers3.throttle00.total_msg_bytes        62728                       # Total number of bytes forwarded by this switch (Byte)
system.ruby.network.routers3.throttle00.total_data_msg_bytes        55744                       # Total number of data bytes forwarded by this switch (Byte)
system.ruby.network.routers3.throttle00.total_msg_wait_time            0                       # Total time spend forwarding messages (Tick)
system.ruby.network.routers3.throttle00.total_stall_cy            0                       # Total time spent blocked on any output link (Cycle)
system.ruby.network.routers3.throttle00.total_bw_sat_cy         3484                       # Total time bandwidth was saturated on any output link (Cycle)
system.ruby.network.routers3.throttle00.avg_msg_wait_time            0                       # Average time a message took to be forwarded (Ratio)
system.ruby.network.routers3.throttle00.avg_bandwidth         0.21                       # Average bandwidth (GB/s) (Ratio)
system.ruby.network.routers3.throttle00.avg_useful_bandwidth         0.18                       # Average useful (only data) bandwidth (GB/s) (Ratio)
system.ruby.network.routers3.throttle00.msg_count.Response_Data::1          871                       (Unspecified)
system.ruby.network.routers3.throttle00.msg_bytes.Response_Data::1        62712                       (Unspecified)
system.ruby.network.routers3.throttle00.msg_count.Response_Control::1            2                       (Unspecified)
system.ruby.network.routers3.throttle00.msg_bytes.Response_Control::1           16                       (Unspecified)
system.ruby.network.routers3.throttle01.acc_link_utilization  4482.500000                       # Accumulated link utilization system.ruby.network.int_links4 (Count)
system.ruby.network.routers3.throttle01.link_utilization     0.790832                       # Average link utilization (Ratio)
system.ruby.network.routers3.throttle01.total_msg_count         2085                       # Total number of messages forwarded by this switch (Count)
system.ruby.network.routers3.throttle01.total_msg_bytes        71720                       # Total number of bytes forwarded by this switch (Byte)
system.ruby.network.routers3.throttle01.total_data_msg_bytes        55040                       # Total number of data bytes forwarded by this switch (Byte)
system.ruby.network.routers3.throttle01.total_msg_wait_time            0                       # Total time spend forwarding messages (Tick)
system.ruby.network.routers3.throttle01.total_stall_cy            0                       # Total time spent blocked on any output link (Cycle)
system.ruby.network.routers3.throttle01.total_bw_sat_cy         3440                       # Total time bandwidth was saturated on any output link (Cycle)
system.ruby.network.routers3.throttle01.avg_msg_wait_time            0                       # Average time a message took to be forwarded (Ratio)
system.ruby.network.routers3.throttle01.avg_bandwidth         0.24                       # Average bandwidth (GB/s) (Ratio)
system.ruby.network.routers3.throttle01.avg_useful_bandwidth         0.18                       # Average useful (only data) bandwidth (GB/s) (Ratio)
system.ruby.network.routers3.throttle01.msg_count.Control::0          871                       (Unspecified)
system.ruby.network.routers3.throttle01.msg_bytes.Control::0         6968                       (Unspecified)
system.ruby.network.routers3.throttle01.msg_count.Response_Data::1          859                       (Unspecified)
system.ruby.network.routers3.throttle01.msg_bytes.Response_Data::1        61848                       (Unspecified)
system.ruby.network.routers3.throttle01.msg_count.Response_Control::2          353                       (Unspecified)
system.ruby.network.routers3.throttle01.msg_bytes.Response_Control::2         2824                       (Unspecified)
system.ruby.network.routers3.throttle01.msg_count.Writeback_Data::0            1                       (Unspecified)
system.ruby.network.routers3.throttle01.msg_bytes.Writeback_Data::0           72                       (Unspecified)
system.ruby.network.routers3.throttle01.msg_count.Writeback_Control::0            1                       (Unspecified)
system.ruby.network.routers3.throttle01.msg_bytes.Writeback_Control::0            8                       (Unspecified)
system.ruby.network.routers3.throttle02.acc_link_utilization   429.500000                       # Accumulated link utilization system.ruby.network.int_links5 (Count)
system.ruby.network.routers3.throttle02.link_utilization     0.075775                       # Average link utilization (Ratio)
system.ruby.network.routers3.throttle02.total_msg_count          859                       # Total number of messages forwarded by this switch (Count)
system.ruby.network.routers3.throttle02.total_msg_bytes         6872                       # Total number of bytes forwarded by this switch (Byte)
system.ruby.network.routers3.throttle02.total_data_msg_bytes            0                       # Total number of data bytes forwarded by this switch (Byte)
system.ruby.network.routers3.throttle02.total_msg_wait_time            0                       # Total time spend forwarding messages (Tick)
system.ruby.network.routers3.throttle02.total_stall_cy            0                       # Total time spent blocked on any output link (Cycle)
system.ruby.network.routers3.throttle02.total_bw_sat_cy            0                       # Total time bandwidth was saturated on any output link (Cycle)
system.ruby.network.routers3.throttle02.avg_msg_wait_time            0                       # Average time a message took to be forwarded (Ratio)
system.ruby.network.routers3.throttle02.avg_bandwidth         0.02                       # Average bandwidth (GB/s) (Ratio)
system.ruby.network.routers3.throttle02.avg_useful_bandwidth         0.00                       # Average useful (only data) bandwidth (GB/s) (Ratio)
system.ruby.network.routers3.throttle02.msg_count.Control::0          859                       (Unspecified)
system.ruby.network.routers3.throttle02.msg_bytes.Control::0         6872                       (Unspecified)
system.ruby.power_state.pwrStateResidencyTicks::UNDEFINED    283404000                       # Cumulative time (in ticks) in various power states (Tick)
system.sys_port_proxy.power_state.pwrStateResidencyTicks::UNDEFINED    283404000                       # Cumulative time (in ticks) in various power states (Tick)
system.voltage_domain.voltage                       1                       # Voltage in Volts (Volt)
system.workload.inst.arm                            0                       # number of arm instructions executed (Count)
system.workload.inst.quiesce                        0                       # number of quiesce instructions executed (Count)

---------- End Simulation Statistics   ----------
