
---------- Begin Simulation Statistics ----------
simSeconds                                   0.000254                       # Number of seconds simulated (Second)
simTicks                                    254482500                       # Number of ticks simulated (Tick)
finalTick                                   254482500                       # Number of ticks from beginning of simulation (restored from checkpoints and never reset) (Tick)
simFreq                                  1000000000000                       # The number of ticks per simulated second ((Tick/Second))
hostSeconds                                      0.25                       # Real time elapsed on the host (Second)
hostTickRate                               1021821095                       # The number of ticks simulated per host second (ticks/s) ((Tick/Second))
hostMemory                                    2592828                       # Number of bytes of host memory used (Byte)
simInsts                                       121444                       # Number of instructions simulated (Count)
simOps                                         221648                       # Number of ops (including micro ops) simulated (Count)
hostInstRate                                   487470                       # Simulator instruction rate (inst/s) ((Count/Second))
hostOpRate                                     889670                       # Simulator op (including micro ops) rate (op/s) ((Count/Second))
system.clk_domain.clock                          1000                       # Clock period in ticks (Tick)
system.cpu.numCycles                           508965                       # Number of cpu cycles simulated (Cycle)
system.cpu.cpi                               4.190357                       # CPI: cycles per instruction (core level) ((Cycle/Count))
system.cpu.ipc                               0.238643                       # IPC: instructions per cycle (core level) ((Count/Cycle))
system.cpu.numWorkItemsStarted                      0                       # Number of work items this cpu started (Count)
system.cpu.numWorkItemsCompleted                    0                       # Number of work items this cpu completed (Count)
system.cpu.commitStats0.numInsts               121461                       # Number of instructions committed (thread level) (Count)
system.cpu.commitStats0.numOps                 221666                       # Number of ops (including micro ops) committed (thread level) (Count)
system.cpu.commitStats0.numInstsNotNOP              0                       # Number of instructions committed excluding NOPs or prefetches (Count)
system.cpu.commitStats0.numOpsNotNOP                0                       # Number of Ops (including micro ops) Simulated (Count)
system.cpu.commitStats0.cpi                  4.190357                       # CPI: cycles per instruction (thread level) ((Cycle/Count))
system.cpu.commitStats0.ipc                  0.238643                       # IPC: instructions per cycle (thread level) ((Count/Cycle))
system.cpu.commitStats0.numMemRefs                  0                       # Number of memory references committed (Count)
system.cpu.commitStats0.numFpInsts               1354                       # Number of float instructions (Count)
system.cpu.commitStats0.numIntInsts            220807                       # Number of integer instructions (Count)
system.cpu.commitStats0.numLoadInsts            11885                       # Number of load instructions (Count)
system.cpu.commitStats0.numStoreInsts           12554                       # Number of store instructions (Count)
system.cpu.commitStats0.numVecInsts                 0                       # Number of vector instructions (Count)
system.cpu.commitStats0.committedInstType::No_OpClass          207      0.09%      0.09% # Class of committed instruction. (Count)
system.cpu.commitStats0.committedInstType::IntAlu       196434     88.62%     88.71% # Class of committed instruction. (Count)
system.cpu.commitStats0.committedInstType::IntMult           12      0.01%     88.72% # Class of committed instruction. (Count)
system.cpu.commitStats0.committedInstType::IntDiv           21      0.01%     88.73% # Class of committed instruction. (Count)
system.cpu.commitStats0.committedInstType::FloatAdd          172      0.08%     88.80% # Class of committed instruction. (Count)
system.cpu.commitStats0.committedInstType::FloatCmp            0      0.00%     88.80% # Class of committed instruction. (Count)
system.cpu.commitStats0.committedInstType::FloatCvt            0      0.00%     88.80% # Class of committed instruction. (Count)
system.cpu.commitStats0.committedInstType::FloatMult            0      0.00%     88.80% # Class of committed instruction. (Count)
system.cpu.commitStats0.committedInstType::FloatMultAcc            0      0.00%     88.80% # Class of committed instruction. (Count)
system.cpu.commitStats0.committedInstType::FloatDiv            0      0.00%     88.80% # Class of committed instruction. (Count)
system.cpu.commitStats0.committedInstType::FloatMisc            0      0.00%     88.80% # Class of committed instruction. (Count)
system.cpu.commitStats0.committedInstType::FloatSqrt            0      0.00%     88.80% # Class of committed instruction. (Count)
system.cpu.commitStats0.committedInstType::SimdAdd            8      0.00%     88.81% # Class of committed instruction. (Count)
system.cpu.commitStats0.committedInstType::SimdAddAcc            0      0.00%     88.81% # Class of committed instruction. (Count)
system.cpu.commitStats0.committedInstType::SimdAlu           96      0.04%     88.85% # Class of committed instruction. (Count)
system.cpu.commitStats0.committedInstType::SimdCmp            0      0.00%     88.85% # Class of committed instruction. (Count)
system.cpu.commitStats0.committedInstType::SimdCvt           48      0.02%     88.87% # Class of committed instruction. (Count)
system.cpu.commitStats0.committedInstType::SimdMisc          229      0.10%     88.97% # Class of committed instruction. (Count)
system.cpu.commitStats0.committedInstType::SimdMult            0      0.00%     88.97% # Class of committed instruction. (Count)
system.cpu.commitStats0.committedInstType::SimdMultAcc            0      0.00%     88.97% # Class of committed instruction. (Count)
system.cpu.commitStats0.committedInstType::SimdMatMultAcc            0      0.00%     88.97% # Class of committed instruction. (Count)
system.cpu.commitStats0.committedInstType::SimdShift            0      0.00%     88.97% # Class of committed instruction. (Count)
system.cpu.commitStats0.committedInstType::SimdShiftAcc            0      0.00%     88.97% # Class of committed instruction. (Count)
system.cpu.commitStats0.committedInstType::SimdDiv            0      0.00%     88.97% # Class of committed instruction. (Count)
system.cpu.commitStats0.committedInstType::SimdSqrt            0      0.00%     88.97% # Class of committed instruction. (Count)
system.cpu.commitStats0.committedInstType::SimdFloatAdd            0      0.00%     88.97% # Class of committed instruction. (Count)
system.cpu.commitStats0.committedInstType::SimdFloatAlu            0      0.00%     88.97% # Class of committed instruction. (Count)
system.cpu.commitStats0.committedInstType::SimdFloatCmp            0      0.00%     88.97% # Class of committed instruction. (Count)
system.cpu.commitStats0.committedInstType::SimdFloatCvt            0      0.00%     88.97% # Class of committed instruction. (Count)
system.cpu.commitStats0.committedInstType::SimdFloatDiv            0      0.00%     88.97% # Class of committed instruction. (Count)
system.cpu.commitStats0.committedInstType::SimdFloatMisc            0      0.00%     88.97% # Class of committed instruction. (Count)
system.cpu.commitStats0.committedInstType::SimdFloatMult            0      0.00%     88.97% # Class of committed instruction. (Count)
system.cpu.commitStats0.committedInstType::SimdFloatMultAcc            0      0.00%     88.97% # Class of committed instruction. (Count)
system.cpu.commitStats0.committedInstType::SimdFloatMatMultAcc            0      0.00%     88.97% # Class of committed instruction. (Count)
system.cpu.commitStats0.committedInstType::SimdFloatSqrt            0      0.00%     88.97% # Class of committed instruction. (Count)
system.cpu.commitStats0.committedInstType::SimdReduceAdd            0      0.00%     88.97% # Class of committed instruction. (Count)
system.cpu.commitStats0.committedInstType::SimdReduceAlu            0      0.00%     88.97% # Class of committed instruction. (Count)
system.cpu.commitStats0.committedInstType::SimdReduceCmp            0      0.00%     88.97% # Class of committed instruction. (Count)
system.cpu.commitStats0.committedInstType::SimdFloatReduceAdd            0      0.00%     88.97% # Class of committed instruction. (Count)
system.cpu.commitStats0.committedInstType::SimdFloatReduceCmp            0      0.00%     88.97% # Class of committed instruction. (Count)
system.cpu.commitStats0.committedInstType::SimdAes            0      0.00%     88.97% # Class of committed instruction. (Count)
system.cpu.commitStats0.committedInstType::SimdAesMix            0      0.00%     88.97% # Class of committed instruction. (Count)
system.cpu.commitStats0.committedInstType::SimdSha1Hash            0      0.00%     88.97% # Class of committed instruction. (Count)
system.cpu.commitStats0.committedInstType::SimdSha1Hash2            0      0.00%     88.97% # Class of committed instruction. (Count)
system.cpu.commitStats0.committedInstType::SimdSha256Hash            0      0.00%     88.97% # Class of committed instruction. (Count)
system.cpu.commitStats0.committedInstType::SimdSha256Hash2            0      0.00%     88.97% # Class of committed instruction. (Count)
system.cpu.commitStats0.committedInstType::SimdShaSigma2            0      0.00%     88.97% # Class of committed instruction. (Count)
system.cpu.commitStats0.committedInstType::SimdShaSigma3            0      0.00%     88.97% # Class of committed instruction. (Count)
system.cpu.commitStats0.committedInstType::SimdPredAlu            0      0.00%     88.97% # Class of committed instruction. (Count)
system.cpu.commitStats0.committedInstType::Matrix            0      0.00%     88.97% # Class of committed instruction. (Count)
system.cpu.commitStats0.committedInstType::MatrixMov            0      0.00%     88.97% # Class of committed instruction. (Count)
system.cpu.commitStats0.committedInstType::MatrixOP            0      0.00%     88.97% # Class of committed instruction. (Count)
system.cpu.commitStats0.committedInstType::MemRead        11764      5.31%     94.28% # Class of committed instruction. (Count)
system.cpu.commitStats0.committedInstType::MemWrite        12031      5.43%     99.71% # Class of committed instruction. (Count)
system.cpu.commitStats0.committedInstType::FloatMemRead          121      0.05%     99.76% # Class of committed instruction. (Count)
system.cpu.commitStats0.committedInstType::FloatMemWrite          523      0.24%    100.00% # Class of committed instruction. (Count)
system.cpu.commitStats0.committedInstType::IprAccess            0      0.00%    100.00% # Class of committed instruction. (Count)
system.cpu.commitStats0.committedInstType::InstPrefetch            0      0.00%    100.00% # Class of committed instruction. (Count)
system.cpu.commitStats0.committedInstType::SimdUnitStrideLoad            0      0.00%    100.00% # Class of committed instruction. (Count)
system.cpu.commitStats0.committedInstType::SimdUnitStrideStore            0      0.00%    100.00% # Class of committed instruction. (Count)
system.cpu.commitStats0.committedInstType::SimdUnitStrideMaskLoad            0      0.00%    100.00% # Class of committed instruction. (Count)
system.cpu.commitStats0.committedInstType::SimdUnitStrideMaskStore            0      0.00%    100.00% # Class of committed instruction. (Count)
system.cpu.commitStats0.committedInstType::SimdStridedLoad            0      0.00%    100.00% # Class of committed instruction. (Count)
system.cpu.commitStats0.committedInstType::SimdStridedStore            0      0.00%    100.00% # Class of committed instruction. (Count)
system.cpu.commitStats0.committedInstType::SimdIndexedLoad            0      0.00%    100.00% # Class of committed instruction. (Count)
system.cpu.commitStats0.committedInstType::SimdIndexedStore            0      0.00%    100.00% # Class of committed instruction. (Count)
system.cpu.commitStats0.committedInstType::SimdWholeRegisterLoad            0      0.00%    100.00% # Class of committed instruction. (Count)
system.cpu.commitStats0.committedInstType::SimdWholeRegisterStore            0      0.00%    100.00% # Class of committed instruction. (Count)
system.cpu.commitStats0.committedInstType::SimdUnitStrideFaultOnlyFirstLoad            0      0.00%    100.00% # Class of committed instruction. (Count)
system.cpu.commitStats0.committedInstType::SimdUnitStrideSegmentedLoad            0      0.00%    100.00% # Class of committed instruction. (Count)
system.cpu.commitStats0.committedInstType::SimdUnitStrideSegmentedStore            0      0.00%    100.00% # Class of committed instruction. (Count)
system.cpu.commitStats0.committedInstType::SimdUnitStrideSegmentedFaultOnlyFirstLoad            0      0.00%    100.00% # Class of committed instruction. (Count)
system.cpu.commitStats0.committedInstType::SimdStrideSegmentedLoad            0      0.00%    100.00% # Class of committed instruction. (Count)
system.cpu.commitStats0.committedInstType::SimdStrideSegmentedStore            0      0.00%    100.00% # Class of committed instruction. (Count)
system.cpu.commitStats0.committedInstType::SimdExt            0      0.00%    100.00% # Class of committed instruction. (Count)
system.cpu.commitStats0.committedInstType::SimdFloatExt            0      0.00%    100.00% # Class of committed instruction. (Count)
system.cpu.commitStats0.committedInstType::SimdConfig            0      0.00%    100.00% # Class of committed instruction. (Count)
system.cpu.commitStats0.committedInstType::total       221666                       # Class of committed instruction. (Count)
system.cpu.commitStats0.committedControl::IsControl        42131                       # Class of control type instructions committed (Count)
system.cpu.commitStats0.committedControl::IsDirectControl        41883                       # Class of control type instructions committed (Count)
system.cpu.commitStats0.committedControl::IsIndirectControl          248                       # Class of control type instructions committed (Count)
system.cpu.commitStats0.committedControl::IsCondControl        31594                       # Class of control type instructions committed (Count)
system.cpu.commitStats0.committedControl::IsUncondControl        10537                       # Class of control type instructions committed (Count)
system.cpu.commitStats0.committedControl::IsCall          180                       # Class of control type instructions committed (Count)
system.cpu.commitStats0.committedControl::IsReturn          175                       # Class of control type instructions committed (Count)
system.cpu.exec_context.thread_0.numMatAluAccesses            0                       # Number of matrix alu accesses (Count)
system.cpu.exec_context.thread_0.numCallsReturns          355                       # Number of times a function call or return occured (Count)
system.cpu.exec_context.thread_0.numMatInsts            0                       # Number of matrix instructions (Count)
system.cpu.exec_context.thread_0.numIdleCycles     0.002000                       # Number of idle cycles (Cycle)
system.cpu.exec_context.thread_0.numBusyCycles 508964.998000                       # Number of busy cycles (Cycle)
system.cpu.exec_context.thread_0.notIdleFraction     1.000000                       # Percentage of non-idle cycles (Ratio)
system.cpu.exec_context.thread_0.idleFraction     0.000000                       # Percentage of idle cycles (Ratio)
system.cpu.executeStats0.numInsts                   0                       # Number of executed instructions (Count)
system.cpu.executeStats0.numNop                     0                       # Number of nop insts executed (Count)
system.cpu.executeStats0.numBranches                0                       # Number of branches executed (Count)
system.cpu.executeStats0.numLoadInsts               0                       # Number of load instructions executed (Count)
system.cpu.executeStats0.numStoreInsts          24439                       # Number of stores executed (Count)
system.cpu.executeStats0.instRate                   0                       # Inst execution rate ((Count/Cycle))
system.cpu.executeStats0.numFpAluAccesses         1354                       # Number of float alu accesses (Count)
system.cpu.executeStats0.numFpRegReads           1462                       # Number of times the floating registers were read (Count)
system.cpu.executeStats0.numFpRegWrites           785                       # Number of times the floating registers were written (Count)
system.cpu.executeStats0.numIntAluAccesses       220807                       # Number of integer alu accesses (Count)
system.cpu.executeStats0.numIntRegReads        223439                       # Number of times the integer registers were read (Count)
system.cpu.executeStats0.numIntRegWrites       134558                       # Number of times the integer registers were written (Count)
system.cpu.executeStats0.numMemRefs             24439                       # Number of memory refs (Count)
system.cpu.executeStats0.numMiscRegReads       108916                       # Number of times the Misc registers were read (Count)
system.cpu.executeStats0.numVecAluAccesses            0                       # Number of vector alu accesses (Count)
system.cpu.executeStats0.numDiscardedOps            0                       # Number of ops (including micro ops) which were discarded before commit (Count)
system.cpu.fetchStats0.numInsts                121461                       # Number of instructions fetched (thread level) (Count)
system.cpu.fetchStats0.numOps                  221666                       # Number of ops (including micro ops) fetched (thread level) (Count)
system.cpu.fetchStats0.fetchRate             0.238643                       # Number of inst fetches per cycle ((Count/Cycle))
system.cpu.fetchStats0.numBranches              42131                       # Number of branches fetched (Count)
system.cpu.fetchStats0.branchRate            0.082778                       # Number of branch fetches per cycle (Ratio)
system.cpu.fetchStats0.numFetchSuspends             0                       # Number of times Execute suspended instruction fetching (Count)
system.cpu.interrupts.clk_domain.clock           8000                       # Clock period in ticks (Tick)
system.cpu.mmu.dtb.rdAccesses                   11889                       # TLB accesses on read requests (Count)
system.cpu.mmu.dtb.wrAccesses                   12554                       # TLB accesses on write requests (Count)
system.cpu.mmu.dtb.rdMisses                        15                       # TLB misses on read requests (Count)
system.cpu.mmu.dtb.wrMisses                        11                       # TLB misses on write requests (Count)
system.cpu.mmu.dtb.walker.power_state.pwrStateResidencyTicks::UNDEFINED    254482500                       # Cumulative time (in ticks) in various power states (Tick)
system.cpu.mmu.itb.rdAccesses                       0                       # TLB accesses on read requests (Count)
system.cpu.mmu.itb.wrAccesses                  175832                       # TLB accesses on write requests (Count)
system.cpu.mmu.itb.rdMisses                         0                       # TLB misses on read requests (Count)
system.cpu.mmu.itb.wrMisses                        46                       # TLB misses on write requests (Count)
system.cpu.mmu.itb.walker.power_state.pwrStateResidencyTicks::UNDEFINED    254482500                       # Cumulative time (in ticks) in various power states (Tick)
system.cpu.power_state.pwrStateResidencyTicks::ON    254482500                       # Cumulative time (in ticks) in various power states (Tick)
system.cpu.thread_0.numInsts                        0                       # Number of Instructions committed (Count)
system.cpu.thread_0.numOps                          0                       # Number of Ops committed (Count)
system.cpu.thread_0.numMemRefs                      0                       # Number of Memory References (Count)
system.cpu.workload.numSyscalls                    15                       # Number of system calls (Count)
system.cpu_clk_domain.clock                       500                       # Clock period in ticks (Tick)
system.cpu_voltage_domain.voltage                   1                       # Voltage in Volts (Volt)
system.mem_ctrls.avgPriority_ruby.dir_cntrl0::samples       886.00                       # Average QoS priority value for accepted requests (Count)
system.mem_ctrls.priorityMinLatency      0.000000018750                       # per QoS priority minimum request to response latency (Second)
system.mem_ctrls.priorityMaxLatency      0.000000555500                       # per QoS priority maximum request to response latency (Second)
system.mem_ctrls.numReadWriteTurnArounds            0                       # Number of turnarounds from READ to WRITE (Count)
system.mem_ctrls.numWriteReadTurnArounds            0                       # Number of turnarounds from WRITE to READ (Count)
system.mem_ctrls.numStayReadState                1835                       # Number of times bus staying in READ state (Count)
system.mem_ctrls.numStayWriteState                  0                       # Number of times bus staying in WRITE state (Count)
system.mem_ctrls.readReqs                         886                       # Number of read requests accepted (Count)
system.mem_ctrls.writeReqs                          0                       # Number of write requests accepted (Count)
system.mem_ctrls.readBursts                       886                       # Number of controller read bursts, including those serviced by the write queue (Count)
system.mem_ctrls.writeBursts                        0                       # Number of controller write bursts, including those merged in the write queue (Count)
system.mem_ctrls.servicedByWrQ                      0                       # Number of controller read bursts serviced by the write queue (Count)
system.mem_ctrls.mergedWrBursts                     0                       # Number of controller write bursts merged with an existing one (Count)
system.mem_ctrls.neitherReadNorWriteReqs            0                       # Number of requests that are neither read nor write (Count)
system.mem_ctrls.avgRdQLen                       1.00                       # Average read queue length when enqueuing ((Count/Tick))
system.mem_ctrls.avgWrQLen                       0.00                       # Average write queue length when enqueuing ((Count/Tick))
system.mem_ctrls.numRdRetry                         0                       # Number of times read queue was full causing retry (Count)
system.mem_ctrls.numWrRetry                         0                       # Number of times write queue was full causing retry (Count)
system.mem_ctrls.readPktSize::0                     0                       # Read request sizes (log2) (Count)
system.mem_ctrls.readPktSize::1                     0                       # Read request sizes (log2) (Count)
system.mem_ctrls.readPktSize::2                     0                       # Read request sizes (log2) (Count)
system.mem_ctrls.readPktSize::3                     0                       # Read request sizes (log2) (Count)
system.mem_ctrls.readPktSize::4                     0                       # Read request sizes (log2) (Count)
system.mem_ctrls.readPktSize::5                     0                       # Read request sizes (log2) (Count)
system.mem_ctrls.readPktSize::6                   886                       # Read request sizes (log2) (Count)
system.mem_ctrls.writePktSize::0                    0                       # Write request sizes (log2) (Count)
system.mem_ctrls.writePktSize::1                    0                       # Write request sizes (log2) (Count)
system.mem_ctrls.writePktSize::2                    0                       # Write request sizes (log2) (Count)
system.mem_ctrls.writePktSize::3                    0                       # Write request sizes (log2) (Count)
system.mem_ctrls.writePktSize::4                    0                       # Write request sizes (log2) (Count)
system.mem_ctrls.writePktSize::5                    0                       # Write request sizes (log2) (Count)
system.mem_ctrls.writePktSize::6                    0                       # Write request sizes (log2) (Count)
system.mem_ctrls.rdQLenPdf::0                     885                       # What read queue length does an incoming req see (Count)
system.mem_ctrls.rdQLenPdf::1                       1                       # What read queue length does an incoming req see (Count)
system.mem_ctrls.rdQLenPdf::2                       0                       # What read queue length does an incoming req see (Count)
system.mem_ctrls.rdQLenPdf::3                       0                       # What read queue length does an incoming req see (Count)
system.mem_ctrls.rdQLenPdf::4                       0                       # What read queue length does an incoming req see (Count)
system.mem_ctrls.rdQLenPdf::5                       0                       # What read queue length does an incoming req see (Count)
system.mem_ctrls.rdQLenPdf::6                       0                       # What read queue length does an incoming req see (Count)
system.mem_ctrls.rdQLenPdf::7                       0                       # What read queue length does an incoming req see (Count)
system.mem_ctrls.rdQLenPdf::8                       0                       # What read queue length does an incoming req see (Count)
system.mem_ctrls.rdQLenPdf::9                       0                       # What read queue length does an incoming req see (Count)
system.mem_ctrls.rdQLenPdf::10                      0                       # What read queue length does an incoming req see (Count)
system.mem_ctrls.rdQLenPdf::11                      0                       # What read queue length does an incoming req see (Count)
system.mem_ctrls.rdQLenPdf::12                      0                       # What read queue length does an incoming req see (Count)
system.mem_ctrls.rdQLenPdf::13                      0                       # What read queue length does an incoming req see (Count)
system.mem_ctrls.rdQLenPdf::14                      0                       # What read queue length does an incoming req see (Count)
system.mem_ctrls.rdQLenPdf::15                      0                       # What read queue length does an incoming req see (Count)
system.mem_ctrls.rdQLenPdf::16                      0                       # What read queue length does an incoming req see (Count)
system.mem_ctrls.rdQLenPdf::17                      0                       # What read queue length does an incoming req see (Count)
system.mem_ctrls.rdQLenPdf::18                      0                       # What read queue length does an incoming req see (Count)
system.mem_ctrls.rdQLenPdf::19                      0                       # What read queue length does an incoming req see (Count)
system.mem_ctrls.rdQLenPdf::20                      0                       # What read queue length does an incoming req see (Count)
system.mem_ctrls.rdQLenPdf::21                      0                       # What read queue length does an incoming req see (Count)
system.mem_ctrls.rdQLenPdf::22                      0                       # What read queue length does an incoming req see (Count)
system.mem_ctrls.rdQLenPdf::23                      0                       # What read queue length does an incoming req see (Count)
system.mem_ctrls.rdQLenPdf::24                      0                       # What read queue length does an incoming req see (Count)
system.mem_ctrls.rdQLenPdf::25                      0                       # What read queue length does an incoming req see (Count)
system.mem_ctrls.rdQLenPdf::26                      0                       # What read queue length does an incoming req see (Count)
system.mem_ctrls.rdQLenPdf::27                      0                       # What read queue length does an incoming req see (Count)
system.mem_ctrls.rdQLenPdf::28                      0                       # What read queue length does an incoming req see (Count)
system.mem_ctrls.rdQLenPdf::29                      0                       # What read queue length does an incoming req see (Count)
system.mem_ctrls.rdQLenPdf::30                      0                       # What read queue length does an incoming req see (Count)
system.mem_ctrls.rdQLenPdf::31                      0                       # What read queue length does an incoming req see (Count)
system.mem_ctrls.wrQLenPdf::0                       0                       # What write queue length does an incoming req see (Count)
system.mem_ctrls.wrQLenPdf::1                       0                       # What write queue length does an incoming req see (Count)
system.mem_ctrls.wrQLenPdf::2                       0                       # What write queue length does an incoming req see (Count)
system.mem_ctrls.wrQLenPdf::3                       0                       # What write queue length does an incoming req see (Count)
system.mem_ctrls.wrQLenPdf::4                       0                       # What write queue length does an incoming req see (Count)
system.mem_ctrls.wrQLenPdf::5                       0                       # What write queue length does an incoming req see (Count)
system.mem_ctrls.wrQLenPdf::6                       0                       # What write queue length does an incoming req see (Count)
system.mem_ctrls.wrQLenPdf::7                       0                       # What write queue length does an incoming req see (Count)
system.mem_ctrls.wrQLenPdf::8                       0                       # What write queue length does an incoming req see (Count)
system.mem_ctrls.wrQLenPdf::9                       0                       # What write queue length does an incoming req see (Count)
system.mem_ctrls.wrQLenPdf::10                      0                       # What write queue length does an incoming req see (Count)
system.mem_ctrls.wrQLenPdf::11                      0                       # What write queue length does an incoming req see (Count)
system.mem_ctrls.wrQLenPdf::12                      0                       # What write queue length does an incoming req see (Count)
system.mem_ctrls.wrQLenPdf::13                      0                       # What write queue length does an incoming req see (Count)
system.mem_ctrls.wrQLenPdf::14                      0                       # What write queue length does an incoming req see (Count)
system.mem_ctrls.wrQLenPdf::15                      0                       # What write queue length does an incoming req see (Count)
system.mem_ctrls.wrQLenPdf::16                      0                       # What write queue length does an incoming req see (Count)
system.mem_ctrls.wrQLenPdf::17                      0                       # What write queue length does an incoming req see (Count)
system.mem_ctrls.wrQLenPdf::18                      0                       # What write queue length does an incoming req see (Count)
system.mem_ctrls.wrQLenPdf::19                      0                       # What write queue length does an incoming req see (Count)
system.mem_ctrls.wrQLenPdf::20                      0                       # What write queue length does an incoming req see (Count)
system.mem_ctrls.wrQLenPdf::21                      0                       # What write queue length does an incoming req see (Count)
system.mem_ctrls.wrQLenPdf::22                      0                       # What write queue length does an incoming req see (Count)
system.mem_ctrls.wrQLenPdf::23                      0                       # What write queue length does an incoming req see (Count)
system.mem_ctrls.wrQLenPdf::24                      0                       # What write queue length does an incoming req see (Count)
system.mem_ctrls.wrQLenPdf::25                      0                       # What write queue length does an incoming req see (Count)
system.mem_ctrls.wrQLenPdf::26                      0                       # What write queue length does an incoming req see (Count)
system.mem_ctrls.wrQLenPdf::27                      0                       # What write queue length does an incoming req see (Count)
system.mem_ctrls.wrQLenPdf::28                      0                       # What write queue length does an incoming req see (Count)
system.mem_ctrls.wrQLenPdf::29                      0                       # What write queue length does an incoming req see (Count)
system.mem_ctrls.wrQLenPdf::30                      0                       # What write queue length does an incoming req see (Count)
system.mem_ctrls.wrQLenPdf::31                      0                       # What write queue length does an incoming req see (Count)
system.mem_ctrls.wrQLenPdf::32                      0                       # What write queue length does an incoming req see (Count)
system.mem_ctrls.wrQLenPdf::33                      0                       # What write queue length does an incoming req see (Count)
system.mem_ctrls.wrQLenPdf::34                      0                       # What write queue length does an incoming req see (Count)
system.mem_ctrls.wrQLenPdf::35                      0                       # What write queue length does an incoming req see (Count)
system.mem_ctrls.wrQLenPdf::36                      0                       # What write queue length does an incoming req see (Count)
system.mem_ctrls.wrQLenPdf::37                      0                       # What write queue length does an incoming req see (Count)
system.mem_ctrls.wrQLenPdf::38                      0                       # What write queue length does an incoming req see (Count)
system.mem_ctrls.wrQLenPdf::39                      0                       # What write queue length does an incoming req see (Count)
system.mem_ctrls.wrQLenPdf::40                      0                       # What write queue length does an incoming req see (Count)
system.mem_ctrls.wrQLenPdf::41                      0                       # What write queue length does an incoming req see (Count)
system.mem_ctrls.wrQLenPdf::42                      0                       # What write queue length does an incoming req see (Count)
system.mem_ctrls.wrQLenPdf::43                      0                       # What write queue length does an incoming req see (Count)
system.mem_ctrls.wrQLenPdf::44                      0                       # What write queue length does an incoming req see (Count)
system.mem_ctrls.wrQLenPdf::45                      0                       # What write queue length does an incoming req see (Count)
system.mem_ctrls.wrQLenPdf::46                      0                       # What write queue length does an incoming req see (Count)
system.mem_ctrls.wrQLenPdf::47                      0                       # What write queue length does an incoming req see (Count)
system.mem_ctrls.wrQLenPdf::48                      0                       # What write queue length does an incoming req see (Count)
system.mem_ctrls.wrQLenPdf::49                      0                       # What write queue length does an incoming req see (Count)
system.mem_ctrls.wrQLenPdf::50                      0                       # What write queue length does an incoming req see (Count)
system.mem_ctrls.wrQLenPdf::51                      0                       # What write queue length does an incoming req see (Count)
system.mem_ctrls.wrQLenPdf::52                      0                       # What write queue length does an incoming req see (Count)
system.mem_ctrls.wrQLenPdf::53                      0                       # What write queue length does an incoming req see (Count)
system.mem_ctrls.wrQLenPdf::54                      0                       # What write queue length does an incoming req see (Count)
system.mem_ctrls.wrQLenPdf::55                      0                       # What write queue length does an incoming req see (Count)
system.mem_ctrls.wrQLenPdf::56                      0                       # What write queue length does an incoming req see (Count)
system.mem_ctrls.wrQLenPdf::57                      0                       # What write queue length does an incoming req see (Count)
system.mem_ctrls.wrQLenPdf::58                      0                       # What write queue length does an incoming req see (Count)
system.mem_ctrls.wrQLenPdf::59                      0                       # What write queue length does an incoming req see (Count)
system.mem_ctrls.wrQLenPdf::60                      0                       # What write queue length does an incoming req see (Count)
system.mem_ctrls.wrQLenPdf::61                      0                       # What write queue length does an incoming req see (Count)
system.mem_ctrls.wrQLenPdf::62                      0                       # What write queue length does an incoming req see (Count)
system.mem_ctrls.wrQLenPdf::63                      0                       # What write queue length does an incoming req see (Count)
system.mem_ctrls.bytesReadWrQ                       0                       # Total number of bytes read from write queue (Byte)
system.mem_ctrls.bytesReadSys                   56704                       # Total read bytes from the system interface side (Byte)
system.mem_ctrls.bytesWrittenSys                    0                       # Total written bytes from the system interface side (Byte)
system.mem_ctrls.avgRdBWSys              222820822.64988750                       # Average system read bandwidth in Byte/s ((Byte/Second))
system.mem_ctrls.avgWrBWSys                0.00000000                       # Average system write bandwidth in Byte/s ((Byte/Second))
system.mem_ctrls.totGap                     254425500                       # Total gap between requests (Tick)
system.mem_ctrls.avgGap                     287161.96                       # Average gap between requests ((Tick/Count))
system.mem_ctrls.requestorReadBytes::ruby.dir_cntrl0        56704                       # Per-requestor bytes read from memory (Byte)
system.mem_ctrls.requestorReadRate::ruby.dir_cntrl0 222820822.649887502193                       # Per-requestor bytes read from memory rate ((Byte/Second))
system.mem_ctrls.requestorReadAccesses::ruby.dir_cntrl0          886                       # Per-requestor read serviced memory accesses (Count)
system.mem_ctrls.requestorReadTotalLat::ruby.dir_cntrl0     22643000                       # Per-requestor read total memory access latency (Tick)
system.mem_ctrls.requestorReadAvgLat::ruby.dir_cntrl0     25556.43                       # Per-requestor read average memory access latency ((Tick/Count))
system.mem_ctrls.dram.bytesRead::ruby.dir_cntrl0        56704                       # Number of bytes read from this memory (Byte)
system.mem_ctrls.dram.bytesRead::total          56704                       # Number of bytes read from this memory (Byte)
system.mem_ctrls.dram.numReads::ruby.dir_cntrl0          886                       # Number of read requests responded to by this memory (Count)
system.mem_ctrls.dram.numReads::total             886                       # Number of read requests responded to by this memory (Count)
system.mem_ctrls.dram.bwRead::ruby.dir_cntrl0    222820823                       # Total read bandwidth from this memory ((Byte/Second))
system.mem_ctrls.dram.bwRead::total         222820823                       # Total read bandwidth from this memory ((Byte/Second))
system.mem_ctrls.dram.bwTotal::ruby.dir_cntrl0    222820823                       # Total bandwidth to/from this memory ((Byte/Second))
system.mem_ctrls.dram.bwTotal::total        222820823                       # Total bandwidth to/from this memory ((Byte/Second))
system.mem_ctrls.dram.readBursts                  886                       # Number of DRAM read bursts (Count)
system.mem_ctrls.dram.writeBursts                   0                       # Number of DRAM write bursts (Count)
system.mem_ctrls.dram.perBankRdBursts::0          145                       # Per bank write bursts (Count)
system.mem_ctrls.dram.perBankRdBursts::1           84                       # Per bank write bursts (Count)
system.mem_ctrls.dram.perBankRdBursts::2          116                       # Per bank write bursts (Count)
system.mem_ctrls.dram.perBankRdBursts::3           47                       # Per bank write bursts (Count)
system.mem_ctrls.dram.perBankRdBursts::4           17                       # Per bank write bursts (Count)
system.mem_ctrls.dram.perBankRdBursts::5           71                       # Per bank write bursts (Count)
system.mem_ctrls.dram.perBankRdBursts::6          124                       # Per bank write bursts (Count)
system.mem_ctrls.dram.perBankRdBursts::7           38                       # Per bank write bursts (Count)
system.mem_ctrls.dram.perBankRdBursts::8           33                       # Per bank write bursts (Count)
system.mem_ctrls.dram.perBankRdBursts::9           17                       # Per bank write bursts (Count)
system.mem_ctrls.dram.perBankRdBursts::10           11                       # Per bank write bursts (Count)
system.mem_ctrls.dram.perBankRdBursts::11           20                       # Per bank write bursts (Count)
system.mem_ctrls.dram.perBankRdBursts::12           72                       # Per bank write bursts (Count)
system.mem_ctrls.dram.perBankRdBursts::13           39                       # Per bank write bursts (Count)
system.mem_ctrls.dram.perBankRdBursts::14           50                       # Per bank write bursts (Count)
system.mem_ctrls.dram.perBankRdBursts::15            2                       # Per bank write bursts (Count)
system.mem_ctrls.dram.perBankWrBursts::0            0                       # Per bank write bursts (Count)
system.mem_ctrls.dram.perBankWrBursts::1            0                       # Per bank write bursts (Count)
system.mem_ctrls.dram.perBankWrBursts::2            0                       # Per bank write bursts (Count)
system.mem_ctrls.dram.perBankWrBursts::3            0                       # Per bank write bursts (Count)
system.mem_ctrls.dram.perBankWrBursts::4            0                       # Per bank write bursts (Count)
system.mem_ctrls.dram.perBankWrBursts::5            0                       # Per bank write bursts (Count)
system.mem_ctrls.dram.perBankWrBursts::6            0                       # Per bank write bursts (Count)
system.mem_ctrls.dram.perBankWrBursts::7            0                       # Per bank write bursts (Count)
system.mem_ctrls.dram.perBankWrBursts::8            0                       # Per bank write bursts (Count)
system.mem_ctrls.dram.perBankWrBursts::9            0                       # Per bank write bursts (Count)
system.mem_ctrls.dram.perBankWrBursts::10            0                       # Per bank write bursts (Count)
system.mem_ctrls.dram.perBankWrBursts::11            0                       # Per bank write bursts (Count)
system.mem_ctrls.dram.perBankWrBursts::12            0                       # Per bank write bursts (Count)
system.mem_ctrls.dram.perBankWrBursts::13            0                       # Per bank write bursts (Count)
system.mem_ctrls.dram.perBankWrBursts::14            0                       # Per bank write bursts (Count)
system.mem_ctrls.dram.perBankWrBursts::15            0                       # Per bank write bursts (Count)
system.mem_ctrls.dram.totQLat                 6030500                       # Total ticks spent queuing (Tick)
system.mem_ctrls.dram.totBusLat               4430000                       # Total ticks spent in databus transfers (Tick)
system.mem_ctrls.dram.totMemAccLat           22643000                       # Total ticks spent from burst creation until serviced by the DRAM (Tick)
system.mem_ctrls.dram.avgQLat                 6806.43                       # Average queueing delay per DRAM burst ((Tick/Count))
system.mem_ctrls.dram.avgBusLat               5000.00                       # Average bus latency per DRAM burst ((Tick/Count))
system.mem_ctrls.dram.avgMemAccLat           25556.43                       # Average memory access latency per DRAM burst ((Tick/Count))
system.mem_ctrls.dram.readRowHits                 692                       # Number of row buffer hits during reads (Count)
system.mem_ctrls.dram.writeRowHits                  0                       # Number of row buffer hits during writes (Count)
system.mem_ctrls.dram.readRowHitRate            78.10                       # Row buffer hit rate for reads (Ratio)
system.mem_ctrls.dram.writeRowHitRate             nan                       # Row buffer hit rate for writes (Ratio)
system.mem_ctrls.dram.bytesPerActivate::samples          186                       # Bytes accessed per row activation (Byte)
system.mem_ctrls.dram.bytesPerActivate::mean   289.032258                       # Bytes accessed per row activation (Byte)
system.mem_ctrls.dram.bytesPerActivate::gmean   184.198662                       # Bytes accessed per row activation (Byte)
system.mem_ctrls.dram.bytesPerActivate::stdev   296.119131                       # Bytes accessed per row activation (Byte)
system.mem_ctrls.dram.bytesPerActivate::0-127           56     30.11%     30.11% # Bytes accessed per row activation (Byte)
system.mem_ctrls.dram.bytesPerActivate::128-255           59     31.72%     61.83% # Bytes accessed per row activation (Byte)
system.mem_ctrls.dram.bytesPerActivate::256-383           24     12.90%     74.73% # Bytes accessed per row activation (Byte)
system.mem_ctrls.dram.bytesPerActivate::384-511           10      5.38%     80.11% # Bytes accessed per row activation (Byte)
system.mem_ctrls.dram.bytesPerActivate::512-639           11      5.91%     86.02% # Bytes accessed per row activation (Byte)
system.mem_ctrls.dram.bytesPerActivate::640-767            4      2.15%     88.17% # Bytes accessed per row activation (Byte)
system.mem_ctrls.dram.bytesPerActivate::768-895            2      1.08%     89.25% # Bytes accessed per row activation (Byte)
system.mem_ctrls.dram.bytesPerActivate::896-1023            4      2.15%     91.40% # Bytes accessed per row activation (Byte)
system.mem_ctrls.dram.bytesPerActivate::1024-1151           16      8.60%    100.00% # Bytes accessed per row activation (Byte)
system.mem_ctrls.dram.bytesPerActivate::total          186                       # Bytes accessed per row activation (Byte)
system.mem_ctrls.dram.dramBytesRead             56704                       # Total bytes read (Byte)
system.mem_ctrls.dram.dramBytesWritten              0                       # Total bytes written (Byte)
system.mem_ctrls.dram.avgRdBW              222.820823                       # Average DRAM read bandwidth in MiBytes/s ((Byte/Second))
system.mem_ctrls.dram.avgWrBW                       0                       # Average DRAM write bandwidth in MiBytes/s ((Byte/Second))
system.mem_ctrls.dram.peakBW                 12800.00                       # Theoretical peak bandwidth in MiByte/s ((Byte/Second))
system.mem_ctrls.dram.busUtil                    1.74                       # Data bus utilization in percentage (Ratio)
system.mem_ctrls.dram.busUtilRead                1.74                       # Data bus utilization in percentage for reads (Ratio)
system.mem_ctrls.dram.busUtilWrite               0.00                       # Data bus utilization in percentage for writes (Ratio)
system.mem_ctrls.dram.pageHitRate               78.10                       # Row buffer hit rate, read and write combined (Ratio)
system.mem_ctrls.dram.power_state.pwrStateResidencyTicks::UNDEFINED    254482500                       # Cumulative time (in ticks) in various power states (Tick)
system.mem_ctrls.dram.rank0.actEnergy         1049580                       # Energy for activate commands per rank (pJ) (Joule)
system.mem_ctrls.dram.rank0.preEnergy          538890                       # Energy for precharge commands per rank (pJ) (Joule)
system.mem_ctrls.dram.rank0.readEnergy        4583880                       # Energy for read commands per rank (pJ) (Joule)
system.mem_ctrls.dram.rank0.writeEnergy             0                       # Energy for write commands per rank (pJ) (Joule)
system.mem_ctrls.dram.rank0.refreshEnergy 19668480.000000                       # Energy for refresh commands per rank (pJ) (Joule)
system.mem_ctrls.dram.rank0.actBackEnergy     39413220                       # Energy for active background per rank (pJ) (Joule)
system.mem_ctrls.dram.rank0.preBackEnergy     64531200                       # Energy for precharge background per rank (pJ) (Joule)
system.mem_ctrls.dram.rank0.actPowerDownEnergy            0                       # Energy for active power-down per rank (pJ) (Joule)
system.mem_ctrls.dram.rank0.prePowerDownEnergy            0                       # Energy for precharge power-down per rank (pJ) (Joule)
system.mem_ctrls.dram.rank0.selfRefreshEnergy            0                       # Energy for self refresh per rank (pJ) (Joule)
system.mem_ctrls.dram.rank0.totalEnergy     129785250                       # Total energy per rank (pJ) (Joule)
system.mem_ctrls.dram.rank0.averagePower   509.996758                       # Core power per rank (mW) (Watt)
system.mem_ctrls.dram.rank0.totalIdleTime            0                       # Total Idle time Per DRAM Rank (Tick)
system.mem_ctrls.dram.rank0.pwrStateTime::IDLE    167401750                       # Time in different power states (Tick)
system.mem_ctrls.dram.rank0.pwrStateTime::REF      8320000                       # Time in different power states (Tick)
system.mem_ctrls.dram.rank0.pwrStateTime::SREF            0                       # Time in different power states (Tick)
system.mem_ctrls.dram.rank0.pwrStateTime::PRE_PDN            0                       # Time in different power states (Tick)
system.mem_ctrls.dram.rank0.pwrStateTime::ACT     78760750                       # Time in different power states (Tick)
system.mem_ctrls.dram.rank0.pwrStateTime::ACT_PDN            0                       # Time in different power states (Tick)
system.mem_ctrls.dram.rank1.actEnergy          335580                       # Energy for activate commands per rank (pJ) (Joule)
system.mem_ctrls.dram.rank1.preEnergy          166980                       # Energy for precharge commands per rank (pJ) (Joule)
system.mem_ctrls.dram.rank1.readEnergy        1742160                       # Energy for read commands per rank (pJ) (Joule)
system.mem_ctrls.dram.rank1.writeEnergy             0                       # Energy for write commands per rank (pJ) (Joule)
system.mem_ctrls.dram.rank1.refreshEnergy 19668480.000000                       # Energy for refresh commands per rank (pJ) (Joule)
system.mem_ctrls.dram.rank1.actBackEnergy     28618560                       # Energy for active background per rank (pJ) (Joule)
system.mem_ctrls.dram.rank1.preBackEnergy     73621440                       # Energy for precharge background per rank (pJ) (Joule)
system.mem_ctrls.dram.rank1.actPowerDownEnergy            0                       # Energy for active power-down per rank (pJ) (Joule)
system.mem_ctrls.dram.rank1.prePowerDownEnergy            0                       # Energy for precharge power-down per rank (pJ) (Joule)
system.mem_ctrls.dram.rank1.selfRefreshEnergy            0                       # Energy for self refresh per rank (pJ) (Joule)
system.mem_ctrls.dram.rank1.totalEnergy     124153200                       # Total energy per rank (pJ) (Joule)
system.mem_ctrls.dram.rank1.averagePower   487.865374                       # Core power per rank (mW) (Watt)
system.mem_ctrls.dram.rank1.totalIdleTime            0                       # Total Idle time Per DRAM Rank (Tick)
system.mem_ctrls.dram.rank1.pwrStateTime::IDLE    191140000                       # Time in different power states (Tick)
system.mem_ctrls.dram.rank1.pwrStateTime::REF      8320000                       # Time in different power states (Tick)
system.mem_ctrls.dram.rank1.pwrStateTime::SREF            0                       # Time in different power states (Tick)
system.mem_ctrls.dram.rank1.pwrStateTime::PRE_PDN            0                       # Time in different power states (Tick)
system.mem_ctrls.dram.rank1.pwrStateTime::ACT     55022500                       # Time in different power states (Tick)
system.mem_ctrls.dram.rank1.pwrStateTime::ACT_PDN            0                       # Time in different power states (Tick)
system.mem_ctrls.power_state.pwrStateResidencyTicks::UNDEFINED    254482500                       # Cumulative time (in ticks) in various power states (Tick)
system.ruby.m_outstandReqHistSeqr::bucket_size            1                       (Unspecified)
system.ruby.m_outstandReqHistSeqr::max_bucket            9                       (Unspecified)
system.ruby.m_outstandReqHistSeqr::samples       200272                       (Unspecified)
system.ruby.m_outstandReqHistSeqr::mean      1.000020                       (Unspecified)
system.ruby.m_outstandReqHistSeqr::gmean     1.000014                       (Unspecified)
system.ruby.m_outstandReqHistSeqr::stdev     0.004469                       (Unspecified)
system.ruby.m_outstandReqHistSeqr        |           0      0.00%      0.00% |      200268    100.00%    100.00% |           4      0.00%    100.00% |           0      0.00%    100.00% |           0      0.00%    100.00% |           0      0.00%    100.00% |           0      0.00%    100.00% |           0      0.00%    100.00% |           0      0.00%    100.00% |           0      0.00%    100.00% (Unspecified)
system.ruby.m_outstandReqHistSeqr::total       200272                       (Unspecified)
system.ruby.m_latencyHistSeqr::bucket_size          128                       (Unspecified)
system.ruby.m_latencyHistSeqr::max_bucket         1279                       (Unspecified)
system.ruby.m_latencyHistSeqr::samples         200272                       (Unspecified)
system.ruby.m_latencyHistSeqr::mean          1.542218                       (Unspecified)
system.ruby.m_latencyHistSeqr::gmean         1.021582                       (Unspecified)
system.ruby.m_latencyHistSeqr::stdev         8.833032                       (Unspecified)
system.ruby.m_latencyHistSeqr            |      200077     99.90%     99.90% |         186      0.09%    100.00% |           0      0.00%    100.00% |           0      0.00%    100.00% |           7      0.00%    100.00% |           2      0.00%    100.00% |           0      0.00%    100.00% |           0      0.00%    100.00% |           0      0.00%    100.00% |           0      0.00%    100.00% (Unspecified)
system.ruby.m_latencyHistSeqr::total           200272                       (Unspecified)
system.ruby.m_hitLatencyHistSeqr::bucket_size            1                       (Unspecified)
system.ruby.m_hitLatencyHistSeqr::max_bucket            9                       (Unspecified)
system.ruby.m_hitLatencyHistSeqr::samples       199374                       (Unspecified)
system.ruby.m_hitLatencyHistSeqr::mean              1                       (Unspecified)
system.ruby.m_hitLatencyHistSeqr::gmean             1                       (Unspecified)
system.ruby.m_hitLatencyHistSeqr         |           0      0.00%      0.00% |      199374    100.00%    100.00% |           0      0.00%    100.00% |           0      0.00%    100.00% |           0      0.00%    100.00% |           0      0.00%    100.00% |           0      0.00%    100.00% |           0      0.00%    100.00% |           0      0.00%    100.00% |           0      0.00%    100.00% (Unspecified)
system.ruby.m_hitLatencyHistSeqr::total        199374                       (Unspecified)
system.ruby.m_missLatencyHistSeqr::bucket_size          128                       (Unspecified)
system.ruby.m_missLatencyHistSeqr::max_bucket         1279                       (Unspecified)
system.ruby.m_missLatencyHistSeqr::samples          898                       (Unspecified)
system.ruby.m_missLatencyHistSeqr::mean    121.925390                       (Unspecified)
system.ruby.m_missLatencyHistSeqr::gmean   116.979444                       (Unspecified)
system.ruby.m_missLatencyHistSeqr::stdev    53.350464                       (Unspecified)
system.ruby.m_missLatencyHistSeqr        |         703     78.29%     78.29% |         186     20.71%     99.00% |           0      0.00%     99.00% |           0      0.00%     99.00% |           7      0.78%     99.78% |           2      0.22%    100.00% |           0      0.00%    100.00% |           0      0.00%    100.00% |           0      0.00%    100.00% |           0      0.00%    100.00% (Unspecified)
system.ruby.m_missLatencyHistSeqr::total          898                       (Unspecified)
system.ruby.Directory_Controller.GETX             248      0.00%      0.00% (Unspecified)
system.ruby.Directory_Controller.GETS             638      0.00%      0.00% (Unspecified)
system.ruby.Directory_Controller.Unblock          637      0.00%      0.00% (Unspecified)
system.ruby.Directory_Controller.Exclusive_Unblock          248      0.00%      0.00% (Unspecified)
system.ruby.Directory_Controller.Memory_Data_Cache          886      0.00%      0.00% (Unspecified)
system.ruby.Directory_Controller.I.GETX           223      0.00%      0.00% (Unspecified)
system.ruby.Directory_Controller.I.GETS           638      0.00%      0.00% (Unspecified)
system.ruby.Directory_Controller.S.GETX            25      0.00%      0.00% (Unspecified)
system.ruby.Directory_Controller.IS_M.Memory_Data_Cache          638      0.00%      0.00% (Unspecified)
system.ruby.Directory_Controller.IS.Unblock          637      0.00%      0.00% (Unspecified)
system.ruby.Directory_Controller.MM_M.Memory_Data_Cache          248      0.00%      0.00% (Unspecified)
system.ruby.Directory_Controller.MM.Exclusive_Unblock          248      0.00%      0.00% (Unspecified)
system.ruby.L1Cache_Controller.Load             11853      0.00%      0.00% (Unspecified)
system.ruby.L1Cache_Controller.Ifetch          175832      0.00%      0.00% (Unspecified)
system.ruby.L1Cache_Controller.Store            12587      0.00%      0.00% (Unspecified)
system.ruby.L1Cache_Controller.L1_Replacement          144      0.00%      0.00% (Unspecified)
system.ruby.L1Cache_Controller.Data               650      0.00%      0.00% (Unspecified)
system.ruby.L1Cache_Controller.Exclusive_Data          248      0.00%      0.00% (Unspecified)
system.ruby.L1Cache_Controller.Writeback_Ack            1      0.00%      0.00% (Unspecified)
system.ruby.L1Cache_Controller.Writeback_Ack_Data          143      0.00%      0.00% (Unspecified)
system.ruby.L1Cache_Controller.All_acks           248      0.00%      0.00% (Unspecified)
system.ruby.L1Cache_Controller.Use_Timeout          248      0.00%      0.00% (Unspecified)
system.ruby.L1Cache_Controller.I.Load             131      0.00%      0.00% (Unspecified)
system.ruby.L1Cache_Controller.I.Ifetch           519      0.00%      0.00% (Unspecified)
system.ruby.L1Cache_Controller.I.Store            223      0.00%      0.00% (Unspecified)
system.ruby.L1Cache_Controller.S.Load             476      0.00%      0.00% (Unspecified)
system.ruby.L1Cache_Controller.S.Ifetch        175313      0.00%      0.00% (Unspecified)
system.ruby.L1Cache_Controller.S.Store             25      0.00%      0.00% (Unspecified)
system.ruby.L1Cache_Controller.S.L1_Replacement          143      0.00%      0.00% (Unspecified)
system.ruby.L1Cache_Controller.MM.Load          11240      0.00%      0.00% (Unspecified)
system.ruby.L1Cache_Controller.MM.Store         11543      0.00%      0.00% (Unspecified)
system.ruby.L1Cache_Controller.MM.L1_Replacement            1      0.00%      0.00% (Unspecified)
system.ruby.L1Cache_Controller.MM_W.Load            6      0.00%      0.00% (Unspecified)
system.ruby.L1Cache_Controller.MM_W.Store          796      0.00%      0.00% (Unspecified)
system.ruby.L1Cache_Controller.MM_W.Use_Timeout          248      0.00%      0.00% (Unspecified)
system.ruby.L1Cache_Controller.IM.Exclusive_Data          223      0.00%      0.00% (Unspecified)
system.ruby.L1Cache_Controller.IS.Data            650      0.00%      0.00% (Unspecified)
system.ruby.L1Cache_Controller.SM.Exclusive_Data           25      0.00%      0.00% (Unspecified)
system.ruby.L1Cache_Controller.OM.All_acks          248      0.00%      0.00% (Unspecified)
system.ruby.L1Cache_Controller.SI.Writeback_Ack            1      0.00%      0.00% (Unspecified)
system.ruby.L1Cache_Controller.SI.Writeback_Ack_Data          142      0.00%      0.00% (Unspecified)
system.ruby.L1Cache_Controller.MI.Writeback_Ack_Data            1      0.00%      0.00% (Unspecified)
system.ruby.L2Cache_Controller.L1_GETS            650      0.00%      0.00% (Unspecified)
system.ruby.L2Cache_Controller.L1_GETX            248      0.00%      0.00% (Unspecified)
system.ruby.L2Cache_Controller.L1_PUTX              1      0.00%      0.00% (Unspecified)
system.ruby.L2Cache_Controller.L1_PUTS_only          143      0.00%      0.00% (Unspecified)
system.ruby.L2Cache_Controller.All_Acks           248      0.00%      0.00% (Unspecified)
system.ruby.L2Cache_Controller.Data               886      0.00%      0.00% (Unspecified)
system.ruby.L2Cache_Controller.L1_WBCLEANDATA          142      0.00%      0.00% (Unspecified)
system.ruby.L2Cache_Controller.L1_WBDIRTYDATA            1      0.00%      0.00% (Unspecified)
system.ruby.L2Cache_Controller.Unblock            650      0.00%      0.00% (Unspecified)
system.ruby.L2Cache_Controller.Exclusive_Unblock          248      0.00%      0.00% (Unspecified)
system.ruby.L2Cache_Controller.I.L1_GETS          638      0.00%      0.00% (Unspecified)
system.ruby.L2Cache_Controller.I.L1_GETX          223      0.00%      0.00% (Unspecified)
system.ruby.L2Cache_Controller.ILS.L1_GETX           25      0.00%      0.00% (Unspecified)
system.ruby.L2Cache_Controller.ILS.L1_PUTS_only          142      0.00%      0.00% (Unspecified)
system.ruby.L2Cache_Controller.ILX.L1_PUTX            1      0.00%      0.00% (Unspecified)
system.ruby.L2Cache_Controller.S.L1_GETS           12      0.00%      0.00% (Unspecified)
system.ruby.L2Cache_Controller.SLS.L1_PUTS_only            1      0.00%      0.00% (Unspecified)
system.ruby.L2Cache_Controller.IW.L1_WBCLEANDATA          142      0.00%      0.00% (Unspecified)
system.ruby.L2Cache_Controller.ILXW.L1_WBDIRTYDATA            1      0.00%      0.00% (Unspecified)
system.ruby.L2Cache_Controller.SW.Unblock            1      0.00%      0.00% (Unspecified)
system.ruby.L2Cache_Controller.IGS.Data           638      0.00%      0.00% (Unspecified)
system.ruby.L2Cache_Controller.IGS.Unblock          637      0.00%      0.00% (Unspecified)
system.ruby.L2Cache_Controller.IGM.Data           223      0.00%      0.00% (Unspecified)
system.ruby.L2Cache_Controller.IGMLS.Data           25      0.00%      0.00% (Unspecified)
system.ruby.L2Cache_Controller.IGMO.All_Acks          248      0.00%      0.00% (Unspecified)
system.ruby.L2Cache_Controller.IGMOU.Exclusive_Unblock          248      0.00%      0.00% (Unspecified)
system.ruby.L2Cache_Controller.SS.Unblock           12      0.00%      0.00% (Unspecified)
system.ruby.RequestType.LD.latency_hist_seqr::bucket_size           64                       (Unspecified)
system.ruby.RequestType.LD.latency_hist_seqr::max_bucket          639                       (Unspecified)
system.ruby.RequestType.LD.latency_hist_seqr::samples        11853                       (Unspecified)
system.ruby.RequestType.LD.latency_hist_seqr::mean     2.410276                       (Unspecified)
system.ruby.RequestType.LD.latency_hist_seqr::gmean     1.054633                       (Unspecified)
system.ruby.RequestType.LD.latency_hist_seqr::stdev    14.755019                       (Unspecified)
system.ruby.RequestType.LD.latency_hist_seqr |       11722     98.89%     98.89% |          86      0.73%     99.62% |          43      0.36%     99.98% |           0      0.00%     99.98% |           0      0.00%     99.98% |           0      0.00%     99.98% |           0      0.00%     99.98% |           0      0.00%     99.98% |           1      0.01%     99.99% |           1      0.01%    100.00% (Unspecified)
system.ruby.RequestType.LD.latency_hist_seqr::total        11853                       (Unspecified)
system.ruby.RequestType.LD.hit_latency_hist_seqr::bucket_size            1                       (Unspecified)
system.ruby.RequestType.LD.hit_latency_hist_seqr::max_bucket            9                       (Unspecified)
system.ruby.RequestType.LD.hit_latency_hist_seqr::samples        11722                       (Unspecified)
system.ruby.RequestType.LD.hit_latency_hist_seqr::mean            1                       (Unspecified)
system.ruby.RequestType.LD.hit_latency_hist_seqr::gmean            1                       (Unspecified)
system.ruby.RequestType.LD.hit_latency_hist_seqr |           0      0.00%      0.00% |       11722    100.00%    100.00% |           0      0.00%    100.00% |           0      0.00%    100.00% |           0      0.00%    100.00% |           0      0.00%    100.00% |           0      0.00%    100.00% |           0      0.00%    100.00% |           0      0.00%    100.00% |           0      0.00%    100.00% (Unspecified)
system.ruby.RequestType.LD.hit_latency_hist_seqr::total        11722                       (Unspecified)
system.ruby.RequestType.LD.miss_latency_hist_seqr::bucket_size           64                       (Unspecified)
system.ruby.RequestType.LD.miss_latency_hist_seqr::max_bucket          639                       (Unspecified)
system.ruby.RequestType.LD.miss_latency_hist_seqr::samples          131                       (Unspecified)
system.ruby.RequestType.LD.miss_latency_hist_seqr::mean   128.603053                       (Unspecified)
system.ruby.RequestType.LD.miss_latency_hist_seqr::gmean   123.088480                       (Unspecified)
system.ruby.RequestType.LD.miss_latency_hist_seqr::stdev    60.183524                       (Unspecified)
system.ruby.RequestType.LD.miss_latency_hist_seqr |           0      0.00%      0.00% |          86     65.65%     65.65% |          43     32.82%     98.47% |           0      0.00%     98.47% |           0      0.00%     98.47% |           0      0.00%     98.47% |           0      0.00%     98.47% |           0      0.00%     98.47% |           1      0.76%     99.24% |           1      0.76%    100.00% (Unspecified)
system.ruby.RequestType.LD.miss_latency_hist_seqr::total          131                       (Unspecified)
system.ruby.RequestType.ST.latency_hist_seqr::bucket_size           64                       (Unspecified)
system.ruby.RequestType.ST.latency_hist_seqr::max_bucket          639                       (Unspecified)
system.ruby.RequestType.ST.latency_hist_seqr::samples        12538                       (Unspecified)
system.ruby.RequestType.ST.latency_hist_seqr::mean     3.295183                       (Unspecified)
system.ruby.RequestType.ST.latency_hist_seqr::gmean     1.096755                       (Unspecified)
system.ruby.RequestType.ST.latency_hist_seqr::stdev    17.025017                       (Unspecified)
system.ruby.RequestType.ST.latency_hist_seqr |       12295     98.06%     98.06% |         202      1.61%     99.67% |          40      0.32%     99.99% |           0      0.00%     99.99% |           0      0.00%     99.99% |           0      0.00%     99.99% |           0      0.00%     99.99% |           0      0.00%     99.99% |           0      0.00%     99.99% |           1      0.01%    100.00% (Unspecified)
system.ruby.RequestType.ST.latency_hist_seqr::total        12538                       (Unspecified)
system.ruby.RequestType.ST.hit_latency_hist_seqr::bucket_size            1                       (Unspecified)
system.ruby.RequestType.ST.hit_latency_hist_seqr::max_bucket            9                       (Unspecified)
system.ruby.RequestType.ST.hit_latency_hist_seqr::samples        12295                       (Unspecified)
system.ruby.RequestType.ST.hit_latency_hist_seqr::mean            1                       (Unspecified)
system.ruby.RequestType.ST.hit_latency_hist_seqr::gmean            1                       (Unspecified)
system.ruby.RequestType.ST.hit_latency_hist_seqr |           0      0.00%      0.00% |       12295    100.00%    100.00% |           0      0.00%    100.00% |           0      0.00%    100.00% |           0      0.00%    100.00% |           0      0.00%    100.00% |           0      0.00%    100.00% |           0      0.00%    100.00% |           0      0.00%    100.00% |           0      0.00%    100.00% (Unspecified)
system.ruby.RequestType.ST.hit_latency_hist_seqr::total        12295                       (Unspecified)
system.ruby.RequestType.ST.miss_latency_hist_seqr::bucket_size           64                       (Unspecified)
system.ruby.RequestType.ST.miss_latency_hist_seqr::max_bucket          639                       (Unspecified)
system.ruby.RequestType.ST.miss_latency_hist_seqr::samples          243                       (Unspecified)
system.ruby.RequestType.ST.miss_latency_hist_seqr::mean   119.423868                       (Unspecified)
system.ruby.RequestType.ST.miss_latency_hist_seqr::gmean   117.360567                       (Unspecified)
system.ruby.RequestType.ST.miss_latency_hist_seqr::stdev    34.738060                       (Unspecified)
system.ruby.RequestType.ST.miss_latency_hist_seqr |           0      0.00%      0.00% |         202     83.13%     83.13% |          40     16.46%     99.59% |           0      0.00%     99.59% |           0      0.00%     99.59% |           0      0.00%     99.59% |           0      0.00%     99.59% |           0      0.00%     99.59% |           0      0.00%     99.59% |           1      0.41%    100.00% (Unspecified)
system.ruby.RequestType.ST.miss_latency_hist_seqr::total          243                       (Unspecified)
system.ruby.RequestType.IFETCH.latency_hist_seqr::bucket_size          128                       (Unspecified)
system.ruby.RequestType.IFETCH.latency_hist_seqr::max_bucket         1279                       (Unspecified)
system.ruby.RequestType.IFETCH.latency_hist_seqr::samples       175832                       (Unspecified)
system.ruby.RequestType.IFETCH.latency_hist_seqr::mean     1.355572                       (Unspecified)
system.ruby.RequestType.IFETCH.latency_hist_seqr::gmean     1.014112                       (Unspecified)
system.ruby.RequestType.IFETCH.latency_hist_seqr::stdev     7.269274                       (Unspecified)
system.ruby.RequestType.IFETCH.latency_hist_seqr |      175724     99.94%     99.94% |         102      0.06%    100.00% |           0      0.00%    100.00% |           0      0.00%    100.00% |           4      0.00%    100.00% |           2      0.00%    100.00% |           0      0.00%    100.00% |           0      0.00%    100.00% |           0      0.00%    100.00% |           0      0.00%    100.00% (Unspecified)
system.ruby.RequestType.IFETCH.latency_hist_seqr::total       175832                       (Unspecified)
system.ruby.RequestType.IFETCH.hit_latency_hist_seqr::bucket_size            1                       (Unspecified)
system.ruby.RequestType.IFETCH.hit_latency_hist_seqr::max_bucket            9                       (Unspecified)
system.ruby.RequestType.IFETCH.hit_latency_hist_seqr::samples       175313                       (Unspecified)
system.ruby.RequestType.IFETCH.hit_latency_hist_seqr::mean            1                       (Unspecified)
system.ruby.RequestType.IFETCH.hit_latency_hist_seqr::gmean            1                       (Unspecified)
system.ruby.RequestType.IFETCH.hit_latency_hist_seqr |           0      0.00%      0.00% |      175313    100.00%    100.00% |           0      0.00%    100.00% |           0      0.00%    100.00% |           0      0.00%    100.00% |           0      0.00%    100.00% |           0      0.00%    100.00% |           0      0.00%    100.00% |           0      0.00%    100.00% |           0      0.00%    100.00% (Unspecified)
system.ruby.RequestType.IFETCH.hit_latency_hist_seqr::total       175313                       (Unspecified)
system.ruby.RequestType.IFETCH.miss_latency_hist_seqr::bucket_size          128                       (Unspecified)
system.ruby.RequestType.IFETCH.miss_latency_hist_seqr::max_bucket         1279                       (Unspecified)
system.ruby.RequestType.IFETCH.miss_latency_hist_seqr::samples          519                       (Unspecified)
system.ruby.RequestType.IFETCH.miss_latency_hist_seqr::mean   121.464355                       (Unspecified)
system.ruby.RequestType.IFETCH.miss_latency_hist_seqr::gmean   115.320168                       (Unspecified)
system.ruby.RequestType.IFETCH.miss_latency_hist_seqr::stdev    58.652848                       (Unspecified)
system.ruby.RequestType.IFETCH.miss_latency_hist_seqr |         411     79.19%     79.19% |         102     19.65%     98.84% |           0      0.00%     98.84% |           0      0.00%     98.84% |           4      0.77%     99.61% |           2      0.39%    100.00% |           0      0.00%    100.00% |           0      0.00%    100.00% |           0      0.00%    100.00% |           0      0.00%    100.00% (Unspecified)
system.ruby.RequestType.IFETCH.miss_latency_hist_seqr::total          519                       (Unspecified)
system.ruby.RequestType.RMW_Read.latency_hist_seqr::bucket_size           16                       (Unspecified)
system.ruby.RequestType.RMW_Read.latency_hist_seqr::max_bucket          159                       (Unspecified)
system.ruby.RequestType.RMW_Read.latency_hist_seqr::samples           21                       (Unspecified)
system.ruby.RequestType.RMW_Read.latency_hist_seqr::mean           18                       (Unspecified)
system.ruby.RequestType.RMW_Read.latency_hist_seqr::gmean     1.980121                       (Unspecified)
system.ruby.RequestType.RMW_Read.latency_hist_seqr::stdev    42.953463                       (Unspecified)
system.ruby.RequestType.RMW_Read.latency_hist_seqr |          18     85.71%     85.71% |           0      0.00%     85.71% |           0      0.00%     85.71% |           0      0.00%     85.71% |           0      0.00%     85.71% |           0      0.00%     85.71% |           2      9.52%     95.24% |           0      0.00%     95.24% |           1      4.76%    100.00% |           0      0.00%    100.00% (Unspecified)
system.ruby.RequestType.RMW_Read.latency_hist_seqr::total           21                       (Unspecified)
system.ruby.RequestType.RMW_Read.hit_latency_hist_seqr::bucket_size            1                       (Unspecified)
system.ruby.RequestType.RMW_Read.hit_latency_hist_seqr::max_bucket            9                       (Unspecified)
system.ruby.RequestType.RMW_Read.hit_latency_hist_seqr::samples           18                       (Unspecified)
system.ruby.RequestType.RMW_Read.hit_latency_hist_seqr::mean            1                       (Unspecified)
system.ruby.RequestType.RMW_Read.hit_latency_hist_seqr::gmean            1                       (Unspecified)
system.ruby.RequestType.RMW_Read.hit_latency_hist_seqr |           0      0.00%      0.00% |          18    100.00%    100.00% |           0      0.00%    100.00% |           0      0.00%    100.00% |           0      0.00%    100.00% |           0      0.00%    100.00% |           0      0.00%    100.00% |           0      0.00%    100.00% |           0      0.00%    100.00% |           0      0.00%    100.00% (Unspecified)
system.ruby.RequestType.RMW_Read.hit_latency_hist_seqr::total           18                       (Unspecified)
system.ruby.RequestType.RMW_Read.miss_latency_hist_seqr::bucket_size           16                       (Unspecified)
system.ruby.RequestType.RMW_Read.miss_latency_hist_seqr::max_bucket          159                       (Unspecified)
system.ruby.RequestType.RMW_Read.miss_latency_hist_seqr::samples            3                       (Unspecified)
system.ruby.RequestType.RMW_Read.miss_latency_hist_seqr::mean          120                       (Unspecified)
system.ruby.RequestType.RMW_Read.miss_latency_hist_seqr::gmean   119.355292                       (Unspecified)
system.ruby.RequestType.RMW_Read.miss_latency_hist_seqr::stdev    15.588457                       (Unspecified)
system.ruby.RequestType.RMW_Read.miss_latency_hist_seqr |           0      0.00%      0.00% |           0      0.00%      0.00% |           0      0.00%      0.00% |           0      0.00%      0.00% |           0      0.00%      0.00% |           0      0.00%      0.00% |           2     66.67%     66.67% |           0      0.00%     66.67% |           1     33.33%    100.00% |           0      0.00%    100.00% (Unspecified)
system.ruby.RequestType.RMW_Read.miss_latency_hist_seqr::total            3                       (Unspecified)
system.ruby.RequestType.Locked_RMW_Read.latency_hist_seqr::bucket_size           16                       (Unspecified)
system.ruby.RequestType.Locked_RMW_Read.latency_hist_seqr::max_bucket          159                       (Unspecified)
system.ruby.RequestType.Locked_RMW_Read.latency_hist_seqr::samples           14                       (Unspecified)
system.ruby.RequestType.Locked_RMW_Read.latency_hist_seqr::mean    16.714286                       (Unspecified)
system.ruby.RequestType.Locked_RMW_Read.latency_hist_seqr::gmean     1.959697                       (Unspecified)
system.ruby.RequestType.Locked_RMW_Read.latency_hist_seqr::stdev    39.945017                       (Unspecified)
system.ruby.RequestType.Locked_RMW_Read.latency_hist_seqr |          12     85.71%     85.71% |           0      0.00%     85.71% |           0      0.00%     85.71% |           0      0.00%     85.71% |           0      0.00%     85.71% |           0      0.00%     85.71% |           2     14.29%    100.00% |           0      0.00%    100.00% |           0      0.00%    100.00% |           0      0.00%    100.00% (Unspecified)
system.ruby.RequestType.Locked_RMW_Read.latency_hist_seqr::total           14                       (Unspecified)
system.ruby.RequestType.Locked_RMW_Read.hit_latency_hist_seqr::bucket_size            1                       (Unspecified)
system.ruby.RequestType.Locked_RMW_Read.hit_latency_hist_seqr::max_bucket            9                       (Unspecified)
system.ruby.RequestType.Locked_RMW_Read.hit_latency_hist_seqr::samples           12                       (Unspecified)
system.ruby.RequestType.Locked_RMW_Read.hit_latency_hist_seqr::mean            1                       (Unspecified)
system.ruby.RequestType.Locked_RMW_Read.hit_latency_hist_seqr::gmean            1                       (Unspecified)
[...]
system.ruby.network.routers1.throttle00.msg_bytes.Unblock_Control::2         7184                       (Unspecified)
system.ruby.network.routers1.throttle01.acc_link_utilization  4998.500000                       # Accumulated link utilization system.ruby.network.int_links1 (Count)
system.ruby.network.routers1.throttle01.link_utilization     0.982091                       # Average link utilization (Ratio)
system.ruby.network.routers1.throttle01.total_msg_count         2813                       # Total number of messages forwarded by this switch (Count)
system.ruby.network.routers1.throttle01.total_msg_bytes        79976                       # Total number of bytes forwarded by this switch (Byte)
system.ruby.network.routers1.throttle01.total_data_msg_bytes        57472                       # Total number of data bytes forwarded by this switch (Byte)
system.ruby.network.routers1.throttle01.total_msg_wait_time            0                       # Total time spend forwarding messages (Tick)
system.ruby.network.routers1.throttle01.total_stall_cy            0                       # Total time spent blocked on any output link (Cycle)
system.ruby.network.routers1.throttle01.total_bw_sat_cy         3592                       # Total time bandwidth was saturated on any output link (Cycle)
system.ruby.network.routers1.throttle01.avg_msg_wait_time            0                       # Average time a message took to be forwarded (Ratio)
system.ruby.network.routers1.throttle01.avg_bandwidth         0.29                       # Average bandwidth (GB/s) (Ratio)
system.ruby.network.routers1.throttle01.avg_useful_bandwidth         0.21                       # Average useful (only data) bandwidth (GB/s) (Ratio)
system.ruby.network.routers1.throttle01.msg_count.Request_Control::1          886                       (Unspecified)
system.ruby.network.routers1.throttle01.msg_bytes.Request_Control::1         7088                       (Unspecified)
system.ruby.network.routers1.throttle01.msg_count.Response_Data::2          886                       (Unspecified)
system.ruby.network.routers1.throttle01.msg_bytes.Response_Data::2        63792                       (Unspecified)
system.ruby.network.routers1.throttle01.msg_count.ResponseL2hit_Data::2           12                       (Unspecified)
system.ruby.network.routers1.throttle01.msg_bytes.ResponseL2hit_Data::2          864                       (Unspecified)
system.ruby.network.routers1.throttle01.msg_count.Writeback_Control::2          144                       (Unspecified)
system.ruby.network.routers1.throttle01.msg_bytes.Writeback_Control::2         1152                       (Unspecified)
system.ruby.network.routers1.throttle01.msg_count.Unblock_Control::2          885                       (Unspecified)
system.ruby.network.routers1.throttle01.msg_bytes.Unblock_Control::2         7080                       (Unspecified)
system.ruby.network.routers2.percent_links_utilized     0.478667                       (Unspecified)
system.ruby.network.routers2.msg_count.Request_Control::1          886                       (Unspecified)
system.ruby.network.routers2.msg_bytes.Request_Control::1         7088                       (Unspecified)
system.ruby.network.routers2.msg_count.Response_Data::2          886                       (Unspecified)
system.ruby.network.routers2.msg_bytes.Response_Data::2        63792                       (Unspecified)
system.ruby.network.routers2.msg_count.Unblock_Control::2          885                       (Unspecified)
system.ruby.network.routers2.msg_bytes.Unblock_Control::2         7080                       (Unspecified)
system.ruby.network.routers2.port_buffers1.m_msg_count          886                       # Number of messages passed the buffer (Count)
system.ruby.network.routers2.port_buffers1.m_buf_msgs     0.001741                       # Average number of messages in buffer ((Count/Tick))
system.ruby.network.routers2.port_buffers2.m_msg_count          885                       # Number of messages passed the buffer (Count)
system.ruby.network.routers2.port_buffers2.m_buf_msgs     0.001739                       # Average number of messages in buffer ((Count/Tick))
system.ruby.network.routers2.port_buffers5.m_msg_count          886                       # Number of messages passed the buffer (Count)
system.ruby.network.routers2.port_buffers5.m_buf_msgs     0.001741                       # Average number of messages in buffer ((Count/Tick))
system.ruby.network.routers2.power_state.pwrStateResidencyTicks::UNDEFINED    254482500                       # Cumulative time (in ticks) in various power states (Tick)
system.ruby.network.routers2.throttle00.acc_link_utilization   885.500000                       # Accumulated link utilization system.ruby.network.ext_links2 (Count)
system.ruby.network.routers2.throttle00.link_utilization     0.173981                       # Average link utilization (Ratio)
system.ruby.network.routers2.throttle00.total_msg_count         1771                       # Total number of messages forwarded by this switch (Count)
system.ruby.network.routers2.throttle00.total_msg_bytes        14168                       # Total number of bytes forwarded by this switch (Byte)
system.ruby.network.routers2.throttle00.total_data_msg_bytes            0                       # Total number of data bytes forwarded by this switch (Byte)
system.ruby.network.routers2.throttle00.total_msg_wait_time            0                       # Total time spend forwarding messages (Tick)
system.ruby.network.routers2.throttle00.total_stall_cy            0                       # Total time spent blocked on any output link (Cycle)
system.ruby.network.routers2.throttle00.total_bw_sat_cy            0                       # Total time bandwidth was saturated on any output link (Cycle)
system.ruby.network.routers2.throttle00.avg_msg_wait_time            0                       # Average time a message took to be forwarded (Ratio)
system.ruby.network.routers2.throttle00.avg_bandwidth         0.05                       # Average bandwidth (GB/s) (Ratio)
system.ruby.network.routers2.throttle00.avg_useful_bandwidth         0.00                       # Average useful (only data) bandwidth (GB/s) (Ratio)
system.ruby.network.routers2.throttle00.msg_count.Request_Control::1          886                       (Unspecified)
system.ruby.network.routers2.throttle00.msg_bytes.Request_Control::1         7088                       (Unspecified)
system.ruby.network.routers2.throttle00.msg_count.Unblock_Control::2          885                       (Unspecified)
system.ruby.network.routers2.throttle00.msg_bytes.Unblock_Control::2         7080                       (Unspecified)
system.ruby.network.routers2.throttle01.acc_link_utilization         3987                       # Accumulated link utilization system.ruby.network.int_links2 (Count)
system.ruby.network.routers2.throttle01.link_utilization     0.783354                       # Average link utilization (Ratio)
system.ruby.network.routers2.throttle01.total_msg_count          886                       # Total number of messages forwarded by this switch (Count)
system.ruby.network.routers2.throttle01.total_msg_bytes        63792                       # Total number of bytes forwarded by this switch (Byte)
system.ruby.network.routers2.throttle01.total_data_msg_bytes        56704                       # Total number of data bytes forwarded by this switch (Byte)
system.ruby.network.routers2.throttle01.total_msg_wait_time            0                       # Total time spend forwarding messages (Tick)
system.ruby.network.routers2.throttle01.total_stall_cy            0                       # Total time spent blocked on any output link (Cycle)
system.ruby.network.routers2.throttle01.total_bw_sat_cy         3544                       # Total time bandwidth was saturated on any output link (Cycle)
system.ruby.network.routers2.throttle01.avg_msg_wait_time            0                       # Average time a message took to be forwarded (Ratio)
system.ruby.network.routers2.throttle01.avg_bandwidth         0.23                       # Average bandwidth (GB/s) (Ratio)
system.ruby.network.routers2.throttle01.avg_useful_bandwidth         0.21                       # Average useful (only data) bandwidth (GB/s) (Ratio)
system.ruby.network.routers2.throttle01.msg_count.Response_Data::2          886                       (Unspecified)
system.ruby.network.routers2.throttle01.msg_bytes.Response_Data::2        63792                       (Unspecified)
system.ruby.network.routers3.percent_links_utilized     0.694187                       (Unspecified)
system.ruby.network.routers3.msg_count.Request_Control::0          898                       (Unspecified)
system.ruby.network.routers3.msg_count.Request_Control::1          886                       (Unspecified)
system.ruby.network.routers3.msg_bytes.Request_Control::0         7184                       (Unspecified)
system.ruby.network.routers3.msg_bytes.Request_Control::1         7088                       (Unspecified)
system.ruby.network.routers3.msg_count.Response_Data::2         1772                       (Unspecified)
system.ruby.network.routers3.msg_bytes.Response_Data::2       127584                       (Unspecified)
system.ruby.network.routers3.msg_count.ResponseL2hit_Data::2           12                       (Unspecified)
system.ruby.network.routers3.msg_bytes.ResponseL2hit_Data::2          864                       (Unspecified)
system.ruby.network.routers3.msg_count.Writeback_Data::0          143                       (Unspecified)
system.ruby.network.routers3.msg_bytes.Writeback_Data::0        10296                       (Unspecified)
system.ruby.network.routers3.msg_count.Writeback_Control::0          144                       (Unspecified)
system.ruby.network.routers3.msg_count.Writeback_Control::2          144                       (Unspecified)
system.ruby.network.routers3.msg_bytes.Writeback_Control::0         1152                       (Unspecified)
system.ruby.network.routers3.msg_bytes.Writeback_Control::2         1152                       (Unspecified)
system.ruby.network.routers3.msg_count.Unblock_Control::2         1784                       (Unspecified)
system.ruby.network.routers3.msg_bytes.Unblock_Control::2        14272                       (Unspecified)
system.ruby.network.routers3.port_buffers2.m_msg_count         1042                       # Number of messages passed the buffer (Count)
system.ruby.network.routers3.port_buffers2.m_buf_msgs     0.002047                       # Average number of messages in buffer ((Count/Tick))
system.ruby.network.routers3.port_buffers3.m_msg_count         1185                       # Number of messages passed the buffer (Count)
system.ruby.network.routers3.port_buffers3.m_buf_msgs     0.002328                       # Average number of messages in buffer ((Count/Tick))
system.ruby.network.routers3.port_buffers5.m_msg_count         1785                       # Number of messages passed the buffer (Count)
system.ruby.network.routers3.port_buffers5.m_buf_msgs     0.003507                       # Average number of messages in buffer ((Count/Tick))
system.ruby.network.routers3.port_buffers7.m_msg_count          886                       # Number of messages passed the buffer (Count)
system.ruby.network.routers3.port_buffers7.m_buf_msgs     0.001741                       # Average number of messages in buffer ((Count/Tick))
system.ruby.network.routers3.port_buffers8.m_msg_count          885                       # Number of messages passed the buffer (Count)
system.ruby.network.routers3.port_buffers8.m_buf_msgs     0.001739                       # Average number of messages in buffer ((Count/Tick))
system.ruby.network.routers3.power_state.pwrStateResidencyTicks::UNDEFINED    254482500                       # Cumulative time (in ticks) in various power states (Tick)
system.ruby.network.routers3.throttle00.acc_link_utilization         4113                       # Accumulated link utilization system.ruby.network.int_links3 (Count)
system.ruby.network.routers3.throttle00.link_utilization     0.808111                       # Average link utilization (Ratio)
system.ruby.network.routers3.throttle00.total_msg_count         1042                       # Total number of messages forwarded by this switch (Count)
system.ruby.network.routers3.throttle00.total_msg_bytes        65808                       # Total number of bytes forwarded by this switch (Byte)
system.ruby.network.routers3.throttle00.total_data_msg_bytes        57472                       # Total number of data bytes forwarded by this switch (Byte)
system.ruby.network.routers3.throttle00.total_msg_wait_time            0                       # Total time spend forwarding messages (Tick)
system.ruby.network.routers3.throttle00.total_stall_cy            0                       # Total time spent blocked on any output link (Cycle)
system.ruby.network.routers3.throttle00.total_bw_sat_cy         3592                       # Total time bandwidth was saturated on any output link (Cycle)
system.ruby.network.routers3.throttle00.avg_msg_wait_time            0                       # Average time a message took to be forwarded (Ratio)
system.ruby.network.routers3.throttle00.avg_bandwidth         0.24                       # Average bandwidth (GB/s) (Ratio)
system.ruby.network.routers3.throttle00.avg_useful_bandwidth         0.21                       # Average useful (only data) bandwidth (GB/s) (Ratio)
system.ruby.network.routers3.throttle00.msg_count.Response_Data::2          886                       (Unspecified)
system.ruby.network.routers3.throttle00.msg_bytes.Response_Data::2        63792                       (Unspecified)
system.ruby.network.routers3.throttle00.msg_count.ResponseL2hit_Data::2           12                       (Unspecified)
system.ruby.network.routers3.throttle00.msg_bytes.ResponseL2hit_Data::2          864                       (Unspecified)
system.ruby.network.routers3.throttle00.msg_count.Writeback_Control::2          144                       (Unspecified)
system.ruby.network.routers3.throttle00.msg_bytes.Writeback_Control::2         1152                       (Unspecified)
system.ruby.network.routers3.throttle01.acc_link_utilization         5601                       # Accumulated link utilization system.ruby.network.int_links4 (Count)
system.ruby.network.routers3.throttle01.link_utilization     1.100469                       # Average link utilization (Ratio)
system.ruby.network.routers3.throttle01.total_msg_count         2970                       # Total number of messages forwarded by this switch (Count)
system.ruby.network.routers3.throttle01.total_msg_bytes        89616                       # Total number of bytes forwarded by this switch (Byte)
system.ruby.network.routers3.throttle01.total_data_msg_bytes        65856                       # Total number of data bytes forwarded by this switch (Byte)
system.ruby.network.routers3.throttle01.total_msg_wait_time            0                       # Total time spend forwarding messages (Tick)
system.ruby.network.routers3.throttle01.total_stall_cy            0                       # Total time spent blocked on any output link (Cycle)
system.ruby.network.routers3.throttle01.total_bw_sat_cy         4116                       # Total time bandwidth was saturated on any output link (Cycle)
system.ruby.network.routers3.throttle01.avg_msg_wait_time            0                       # Average time a message took to be forwarded (Ratio)
system.ruby.network.routers3.throttle01.avg_bandwidth         0.33                       # Average bandwidth (GB/s) (Ratio)
system.ruby.network.routers3.throttle01.avg_useful_bandwidth         0.24                       # Average useful (only data) bandwidth (GB/s) (Ratio)
system.ruby.network.routers3.throttle01.msg_count.Request_Control::0          898                       (Unspecified)
system.ruby.network.routers3.throttle01.msg_bytes.Request_Control::0         7184                       (Unspecified)
system.ruby.network.routers3.throttle01.msg_count.Response_Data::2          886                       (Unspecified)
system.ruby.network.routers3.throttle01.msg_bytes.Response_Data::2        63792                       (Unspecified)
system.ruby.network.routers3.throttle01.msg_count.Writeback_Data::0          143                       (Unspecified)
system.ruby.network.routers3.throttle01.msg_bytes.Writeback_Data::0        10296                       (Unspecified)
system.ruby.network.routers3.throttle01.msg_count.Writeback_Control::0          144                       (Unspecified)
system.ruby.network.routers3.throttle01.msg_bytes.Writeback_Control::0         1152                       (Unspecified)
system.ruby.network.routers3.throttle01.msg_count.Unblock_Control::2          899                       (Unspecified)
system.ruby.network.routers3.throttle01.msg_bytes.Unblock_Control::2         7192                       (Unspecified)
system.ruby.network.routers3.throttle02.acc_link_utilization   885.500000                       # Accumulated link utilization system.ruby.network.int_links5 (Count)
system.ruby.network.routers3.throttle02.link_utilization     0.173981                       # Average link utilization (Ratio)
system.ruby.network.routers3.throttle02.total_msg_count         1771                       # Total number of messages forwarded by this switch (Count)
system.ruby.network.routers3.throttle02.total_msg_bytes        14168                       # Total number of bytes forwarded by this switch (Byte)
system.ruby.network.routers3.throttle02.total_data_msg_bytes            0                       # Total number of data bytes forwarded by this switch (Byte)
system.ruby.network.routers3.throttle02.total_msg_wait_time            0                       # Total time spend forwarding messages (Tick)
system.ruby.network.routers3.throttle02.total_stall_cy            0                       # Total time spent blocked on any output link (Cycle)
system.ruby.network.routers3.throttle02.total_bw_sat_cy            0                       # Total time bandwidth was saturated on any output link (Cycle)
system.ruby.network.routers3.throttle02.avg_msg_wait_time            0                       # Average time a message took to be forwarded (Ratio)
system.ruby.network.routers3.throttle02.avg_bandwidth         0.05                       # Average bandwidth (GB/s) (Ratio)
system.ruby.network.routers3.throttle02.avg_useful_bandwidth         0.00                       # Average useful (only data) bandwidth (GB/s) (Ratio)
system.ruby.network.routers3.throttle02.msg_count.Request_Control::1          886                       (Unspecified)
system.ruby.network.routers3.throttle02.msg_bytes.Request_Control::1         7088                       (Unspecified)
system.ruby.network.routers3.throttle02.msg_count.Unblock_Control::2          885                       (Unspecified)
system.ruby.network.routers3.throttle02.msg_bytes.Unblock_Control::2         7080                       (Unspecified)
system.ruby.power_state.pwrStateResidencyTicks::UNDEFINED    254482500                       # Cumulative time (in ticks) in various power states (Tick)
system.sys_port_proxy.power_state.pwrStateResidencyTicks::UNDEFINED    254482500                       # Cumulative time (in ticks) in various power states (Tick)
system.voltage_domain.voltage                       1                       # Voltage in Volts (Volt)
system.workload.inst.arm                            0                       # number of arm instructions executed (Count)
system.workload.inst.quiesce                        0                       # number of quiesce instructions executed (Count)

---------- End Simulation Statistics   ----------
