
---------- Begin Simulation Statistics ----------
simSeconds                                   0.001540                       # Number of seconds simulated (Second)
simTicks                                   1540367000                       # Number of ticks simulated (Tick)
finalTick                                  1540367000                       # Number of ticks from beginning of simulation (restored from checkpoints and never reset) (Tick)
simFreq                                  1000000000000                       # The number of ticks per simulated second ((Tick/Second))
hostSeconds                                      5.29                       # Real time elapsed on the host (Second)
hostTickRate                                291370361                       # The number of ticks simulated per host second (ticks/s) ((Tick/Second))
hostMemory                                    2712652                       # Number of bytes of host memory used (Byte)
simInsts                                      1365319                       # Number of instructions simulated (Count)
simOps                                        2805099                       # Number of ops (including micro ops) simulated (Count)
hostInstRate                                   258255                       # Simulator instruction rate (inst/s) ((Count/Second))
hostOpRate                                     530595                       # Simulator op (including micro ops) rate (op/s) ((Count/Second))
system.clk_domain.clock                          1000                       # Clock period in ticks (Tick)
system.cpu0.numCycles                         3080734                       # Number of cpu cycles simulated (Cycle)
system.cpu0.cpi                             17.962207                       # CPI: cycles per instruction (core level) ((Cycle/Count))
system.cpu0.ipc                              0.055672                       # IPC: instructions per cycle (core level) ((Count/Cycle))
system.cpu0.numWorkItemsStarted                     0                       # Number of work items this cpu started (Count)
system.cpu0.numWorkItemsCompleted                   0                       # Number of work items this cpu completed (Count)
system.cpu0.commitStats0.numInsts              171512                       # Number of instructions committed (thread level) (Count)
system.cpu0.commitStats0.numOps                351782                       # Number of ops (including micro ops) committed (thread level) (Count)
system.cpu0.commitStats0.numInstsNotNOP             0                       # Number of instructions committed excluding NOPs or prefetches (Count)
system.cpu0.commitStats0.numOpsNotNOP               0                       # Number of Ops (including micro ops) Simulated (Count)
system.cpu0.commitStats0.cpi                17.962207                       # CPI: cycles per instruction (thread level) ((Cycle/Count))
system.cpu0.commitStats0.ipc                 0.055672                       # IPC: instructions per cycle (thread level) ((Count/Cycle))
system.cpu0.commitStats0.numMemRefs                 0                       # Number of memory references committed (Count)
system.cpu0.commitStats0.numFpInsts              1354                       # Number of float instructions (Count)
system.cpu0.commitStats0.numIntInsts           350921                       # Number of integer instructions (Count)
system.cpu0.commitStats0.numLoadInsts           11915                       # Number of load instructions (Count)
system.cpu0.commitStats0.numStoreInsts          12550                       # Number of store instructions (Count)
system.cpu0.commitStats0.numVecInsts                0                       # Number of vector instructions (Count)
system.cpu0.commitStats0.committedInstType::No_OpClass          209      0.06%      0.06% # Class of committed instruction. (Count)
system.cpu0.commitStats0.committedInstType::IntAlu       326522     92.82%     92.88% # Class of committed instruction. (Count)
system.cpu0.commitStats0.committedInstType::IntMult           12      0.00%     92.88% # Class of committed instruction. (Count)
system.cpu0.commitStats0.committedInstType::IntDiv           21      0.01%     92.89% # Class of committed instruction. (Count)
system.cpu0.commitStats0.committedInstType::FloatAdd          172      0.05%     92.94% # Class of committed instruction. (Count)
system.cpu0.commitStats0.committedInstType::FloatCmp            0      0.00%     92.94% # Class of committed instruction. (Count)
system.cpu0.commitStats0.committedInstType::FloatCvt            0      0.00%     92.94% # Class of committed instruction. (Count)
system.cpu0.commitStats0.committedInstType::FloatMult            0      0.00%     92.94% # Class of committed instruction. (Count)
system.cpu0.commitStats0.committedInstType::FloatMultAcc            0      0.00%     92.94% # Class of committed instruction. (Count)
system.cpu0.commitStats0.committedInstType::FloatDiv            0      0.00%     92.94% # Class of committed instruction. (Count)
system.cpu0.commitStats0.committedInstType::FloatMisc            0      0.00%     92.94% # Class of committed instruction. (Count)
system.cpu0.commitStats0.committedInstType::FloatSqrt            0      0.00%     92.94% # Class of committed instruction. (Count)
system.cpu0.commitStats0.committedInstType::SimdAdd            8      0.00%     92.94% # Class of committed instruction. (Count)
system.cpu0.commitStats0.committedInstType::SimdAddAcc            0      0.00%     92.94% # Class of committed instruction. (Count)
system.cpu0.commitStats0.committedInstType::SimdAlu           96      0.03%     92.97% # Class of committed instruction. (Count)
system.cpu0.commitStats0.committedInstType::SimdCmp            0      0.00%     92.97% # Class of committed instruction. (Count)
system.cpu0.commitStats0.committedInstType::SimdCvt           48      0.01%     92.98% # Class of committed instruction. (Count)
system.cpu0.commitStats0.committedInstType::SimdMisc          229      0.07%     93.05% # Class of committed instruction. (Count)
system.cpu0.commitStats0.committedInstType::SimdMult            0      0.00%     93.05% # Class of committed instruction. (Count)
system.cpu0.commitStats0.committedInstType::SimdMultAcc            0      0.00%     93.05% # Class of committed instruction. (Count)
system.cpu0.commitStats0.committedInstType::SimdMatMultAcc            0      0.00%     93.05% # Class of committed instruction. (Count)
system.cpu0.commitStats0.committedInstType::SimdShift            0      0.00%     93.05% # Class of committed instruction. (Count)
system.cpu0.commitStats0.committedInstType::SimdShiftAcc            0      0.00%     93.05% # Class of committed instruction. (Count)
system.cpu0.commitStats0.committedInstType::SimdDiv            0      0.00%     93.05% # Class of committed instruction. (Count)
system.cpu0.commitStats0.committedInstType::SimdSqrt            0      0.00%     93.05% # Class of committed instruction. (Count)
system.cpu0.commitStats0.committedInstType::SimdFloatAdd            0      0.00%     93.05% # Class of committed instruction. (Count)
system.cpu0.commitStats0.committedInstType::SimdFloatAlu            0      0.00%     93.05% # Class of committed instruction. (Count)
system.cpu0.commitStats0.committedInstType::SimdFloatCmp            0      0.00%     93.05% # Class of committed instruction. (Count)
system.cpu0.commitStats0.committedInstType::SimdFloatCvt            0      0.00%     93.05% # Class of committed instruction. (Count)
system.cpu0.commitStats0.committedInstType::SimdFloatDiv            0      0.00%     93.05% # Class of committed instruction. (Count)
system.cpu0.commitStats0.committedInstType::SimdFloatMisc            0      0.00%     93.05% # Class of committed instruction. (Count)
system.cpu0.commitStats0.committedInstType::SimdFloatMult            0      0.00%     93.05% # Class of committed instruction. (Count)
system.cpu0.commitStats0.committedInstType::SimdFloatMultAcc            0      0.00%     93.05% # Class of committed instruction. (Count)
system.cpu0.commitStats0.committedInstType::SimdFloatMatMultAcc            0      0.00%     93.05% # Class of committed instruction. (Count)
system.cpu0.commitStats0.committedInstType::SimdFloatSqrt            0      0.00%     93.05% # Class of committed instruction. (Count)
system.cpu0.commitStats0.committedInstType::SimdReduceAdd            0      0.00%     93.05% # Class of committed instruction. (Count)
system.cpu0.commitStats0.committedInstType::SimdReduceAlu            0      0.00%     93.05% # Class of committed instruction. (Count)
system.cpu0.commitStats0.committedInstType::SimdReduceCmp            0      0.00%     93.05% # Class of committed instruction. (Count)
system.cpu0.commitStats0.committedInstType::SimdFloatReduceAdd            0      0.00%     93.05% # Class of committed instruction. (Count)
system.cpu0.commitStats0.committedInstType::SimdFloatReduceCmp            0      0.00%     93.05% # Class of committed instruction. (Count)
system.cpu0.commitStats0.committedInstType::SimdAes            0      0.00%     93.05% # Class of committed instruction. (Count)
system.cpu0.commitStats0.committedInstType::SimdAesMix            0      0.00%     93.05% # Class of committed instruction. (Count)
system.cpu0.commitStats0.committedInstType::SimdSha1Hash            0      0.00%     93.05% # Class of committed instruction. (Count)
system.cpu0.commitStats0.committedInstType::SimdSha1Hash2            0      0.00%     93.05% # Class of committed instruction. (Count)
system.cpu0.commitStats0.committedInstType::SimdSha256Hash            0      0.00%     93.05% # Class of committed instruction. (Count)
system.cpu0.commitStats0.committedInstType::SimdSha256Hash2            0      0.00%     93.05% # Class of committed instruction. (Count)
system.cpu0.commitStats0.committedInstType::SimdShaSigma2            0      0.00%     93.05% # Class of committed instruction. (Count)
system.cpu0.commitStats0.committedInstType::SimdShaSigma3            0      0.00%     93.05% # Class of committed instruction. (Count)
system.cpu0.commitStats0.committedInstType::SimdPredAlu            0      0.00%     93.05% # Class of committed instruction. (Count)
system.cpu0.commitStats0.committedInstType::Matrix            0      0.00%     93.05% # Class of committed instruction. (Count)
system.cpu0.commitStats0.committedInstType::MatrixMov            0      0.00%     93.05% # Class of committed instruction. (Count)
system.cpu0.commitStats0.committedInstType::MatrixOP            0      0.00%     93.05% # Class of committed instruction. (Count)
system.cpu0.commitStats0.committedInstType::MemRead        11794      3.35%     96.40% # Class of committed instruction. (Count)
system.cpu0.commitStats0.committedInstType::MemWrite        12027      3.42%     99.82% # Class of committed instruction. (Count)
system.cpu0.commitStats0.committedInstType::FloatMemRead          121      0.03%     99.85% # Class of committed instruction. (Count)
system.cpu0.commitStats0.committedInstType::FloatMemWrite          523      0.15%    100.00% # Class of committed instruction. (Count)
system.cpu0.commitStats0.committedInstType::IprAccess            0      0.00%    100.00% # Class of committed instruction. (Count)
system.cpu0.commitStats0.committedInstType::InstPrefetch            0      0.00%    100.00% # Class of committed instruction. (Count)
system.cpu0.commitStats0.committedInstType::SimdUnitStrideLoad            0      0.00%    100.00% # Class of committed instruction. (Count)
system.cpu0.commitStats0.committedInstType::SimdUnitStrideStore            0      0.00%    100.00% # Class of committed instruction. (Count)
system.cpu0.commitStats0.committedInstType::SimdUnitStrideMaskLoad            0      0.00%    100.00% # Class of committed instruction. (Count)
system.cpu0.commitStats0.committedInstType::SimdUnitStrideMaskStore            0      0.00%    100.00% # Class of committed instruction. (Count)
system.cpu0.commitStats0.committedInstType::SimdStridedLoad            0      0.00%    100.00% # Class of committed instruction. (Count)
system.cpu0.commitStats0.committedInstType::SimdStridedStore            0      0.00%    100.00% # Class of committed instruction. (Count)
system.cpu0.commitStats0.committedInstType::SimdIndexedLoad            0      0.00%    100.00% # Class of committed instruction. (Count)
system.cpu0.commitStats0.committedInstType::SimdIndexedStore            0      0.00%    100.00% # Class of committed instruction. (Count)
system.cpu0.commitStats0.committedInstType::SimdWholeRegisterLoad            0      0.00%    100.00% # Class of committed instruction. (Count)
system.cpu0.commitStats0.committedInstType::SimdWholeRegisterStore            0      0.00%    100.00% # Class of committed instruction. (Count)
system.cpu0.commitStats0.committedInstType::SimdUnitStrideFaultOnlyFirstLoad            0      0.00%    100.00% # Class of committed instruction. (Count)
system.cpu0.commitStats0.committedInstType::SimdUnitStrideSegmentedLoad            0      0.00%    100.00% # Class of committed instruction. (Count)
system.cpu0.commitStats0.committedInstType::SimdUnitStrideSegmentedStore            0      0.00%    100.00% # Class of committed instruction. (Count)
system.cpu0.commitStats0.committedInstType::SimdUnitStrideSegmentedFaultOnlyFirstLoad            0      0.00%    100.00% # Class of committed instruction. (Count)
system.cpu0.commitStats0.committedInstType::SimdStrideSegmentedLoad            0      0.00%    100.00% # Class of committed instruction. (Count)
system.cpu0.commitStats0.committedInstType::SimdStrideSegmentedStore            0      0.00%    100.00% # Class of committed instruction. (Count)
system.cpu0.commitStats0.committedInstType::SimdExt            0      0.00%    100.00% # Class of committed instruction. (Count)
system.cpu0.commitStats0.committedInstType::SimdFloatExt            0      0.00%    100.00% # Class of committed instruction. (Count)
system.cpu0.commitStats0.committedInstType::SimdConfig            0      0.00%    100.00% # Class of committed instruction. (Count)
system.cpu0.commitStats0.committedInstType::total       351782                       # Class of committed instruction. (Count)
system.cpu0.commitStats0.committedControl::IsControl        72148                       # Class of control type instructions committed (Count)
system.cpu0.commitStats0.committedControl::IsDirectControl        71900                       # Class of control type instructions committed (Count)
system.cpu0.commitStats0.committedControl::IsIndirectControl          248                       # Class of control type instructions committed (Count)
system.cpu0.commitStats0.committedControl::IsCondControl        51611                       # Class of control type instructions committed (Count)
system.cpu0.commitStats0.committedControl::IsUncondControl        20537                       # Class of control type instructions committed (Count)
system.cpu0.commitStats0.committedControl::IsCall          180                       # Class of control type instructions committed (Count)
system.cpu0.commitStats0.committedControl::IsReturn          175                       # Class of control type instructions committed (Count)
system.cpu0.exec_context.thread_0.numMatAluAccesses            0                       # Number of matrix alu accesses (Count)
system.cpu0.exec_context.thread_0.numCallsReturns          355                       # Number of times a function call or return occured (Count)
system.cpu0.exec_context.thread_0.numMatInsts            0                       # Number of matrix instructions (Count)
system.cpu0.exec_context.thread_0.numIdleCycles     0.002000                       # Number of idle cycles (Cycle)
system.cpu0.exec_context.thread_0.numBusyCycles 3080733.998000                       # Number of busy cycles (Cycle)
system.cpu0.exec_context.thread_0.notIdleFraction     1.000000                       # Percentage of non-idle cycles (Ratio)
system.cpu0.exec_context.thread_0.idleFraction     0.000000                       # Percentage of idle cycles (Ratio)
system.cpu0.executeStats0.numInsts                  0                       # Number of executed instructions (Count)
system.cpu0.executeStats0.numNop                    0                       # Number of nop insts executed (Count)
system.cpu0.executeStats0.numBranches               0                       # Number of branches executed (Count)
system.cpu0.executeStats0.numLoadInsts              0                       # Number of load instructions executed (Count)
system.cpu0.executeStats0.numStoreInsts         24465                       # Number of stores executed (Count)
system.cpu0.executeStats0.instRate                  0                       # Inst execution rate ((Count/Cycle))
system.cpu0.executeStats0.numFpAluAccesses         1354                       # Number of float alu accesses (Count)
system.cpu0.executeStats0.numFpRegReads          1462                       # Number of times the floating registers were read (Count)
system.cpu0.executeStats0.numFpRegWrites          785                       # Number of times the floating registers were written (Count)
system.cpu0.executeStats0.numIntAluAccesses       350921                       # Number of integer alu accesses (Count)
system.cpu0.executeStats0.numIntRegReads       323546                       # Number of times the integer registers were read (Count)
system.cpu0.executeStats0.numIntRegWrites       214641                       # Number of times the integer registers were written (Count)
system.cpu0.executeStats0.numMemRefs            24465                       # Number of memory refs (Count)
system.cpu0.executeStats0.numMiscRegReads       168976                       # Number of times the Misc registers were read (Count)
system.cpu0.executeStats0.numVecAluAccesses            0                       # Number of vector alu accesses (Count)
system.cpu0.executeStats0.numDiscardedOps            0                       # Number of ops (including micro ops) which were discarded before commit (Count)
system.cpu0.fetchStats0.numInsts               171512                       # Number of instructions fetched (thread level) (Count)
system.cpu0.fetchStats0.numOps                 351782                       # Number of ops (including micro ops) fetched (thread level) (Count)
system.cpu0.fetchStats0.fetchRate            0.055672                       # Number of inst fetches per cycle ((Count/Cycle))
system.cpu0.fetchStats0.numBranches             72148                       # Number of branches fetched (Count)
system.cpu0.fetchStats0.branchRate           0.023419                       # Number of branch fetches per cycle (Ratio)
system.cpu0.fetchStats0.numFetchSuspends            0                       # Number of times Execute suspended instruction fetching (Count)
system.cpu0.interrupts.clk_domain.clock          8000                       # Clock period in ticks (Tick)
system.cpu0.mmu.dtb.rdAccesses                  11919                       # TLB accesses on read requests (Count)
system.cpu0.mmu.dtb.wrAccesses                  12550                       # TLB accesses on write requests (Count)
system.cpu0.mmu.dtb.rdMisses                       15                       # TLB misses on read requests (Count)
system.cpu0.mmu.dtb.wrMisses                       11                       # TLB misses on write requests (Count)
system.cpu0.mmu.dtb.walker.power_state.pwrStateResidencyTicks::UNDEFINED   1540367000                       # Cumulative time (in ticks) in various power states (Tick)
system.cpu0.mmu.itb.rdAccesses                      0                       # TLB accesses on read requests (Count)
system.cpu0.mmu.itb.wrAccesses                 235905                       # TLB accesses on write requests (Count)
system.cpu0.mmu.itb.rdMisses                        0                       # TLB misses on read requests (Count)
system.cpu0.mmu.itb.wrMisses                       47                       # TLB misses on write requests (Count)
system.cpu0.mmu.itb.walker.power_state.pwrStateResidencyTicks::UNDEFINED   1540367000                       # Cumulative time (in ticks) in various power states (Tick)
system.cpu0.power_state.pwrStateResidencyTicks::ON   1540367000                       # Cumulative time (in ticks) in various power states (Tick)
system.cpu0.thread_0.numInsts                       0                       # Number of Instructions committed (Count)
system.cpu0.thread_0.numOps                         0                       # Number of Ops committed (Count)
system.cpu0.thread_0.numMemRefs                     0                       # Number of Memory References (Count)
system.cpu0.workload.numSyscalls                   15                       # Number of system calls (Count)
system.cpu1.numCycles                         3080120                       # Number of cpu cycles simulated (Cycle)
system.cpu1.cpi                             18.052303                       # CPI: cycles per instruction (core level) ((Cycle/Count))
system.cpu1.ipc                              0.055395                       # IPC: instructions per cycle (core level) ((Count/Cycle))
system.cpu1.numWorkItemsStarted                     0                       # Number of work items this cpu started (Count)
system.cpu1.numWorkItemsCompleted                   0                       # Number of work items this cpu completed (Count)
system.cpu1.commitStats0.numInsts              170622                       # Number of instructions committed (thread level) (Count)
system.cpu1.commitStats0.numOps                350632                       # Number of ops (including micro ops) committed (thread level) (Count)
system.cpu1.commitStats0.numInstsNotNOP             0                       # Number of instructions committed excluding NOPs or prefetches (Count)
system.cpu1.commitStats0.numOpsNotNOP               0                       # Number of Ops (including micro ops) Simulated (Count)
system.cpu1.commitStats0.cpi                18.052303                       # CPI: cycles per instruction (thread level) ((Cycle/Count))
system.cpu1.commitStats0.ipc                 0.055395                       # IPC: instructions per cycle (thread level) ((Count/Cycle))
system.cpu1.commitStats0.numMemRefs                 0                       # Number of memory references committed (Count)
system.cpu1.commitStats0.numFpInsts              1354                       # Number of float instructions (Count)
system.cpu1.commitStats0.numIntInsts           349771                       # Number of integer instructions (Count)
system.cpu1.commitStats0.numLoadInsts           12139                       # Number of load instructions (Count)
system.cpu1.commitStats0.numStoreInsts          11893                       # Number of store instructions (Count)
system.cpu1.commitStats0.numVecInsts                0                       # Number of vector instructions (Count)
system.cpu1.commitStats0.committedInstType::No_OpClass          210      0.06%      0.06% # Class of committed instruction. (Count)
system.cpu1.commitStats0.committedInstType::IntAlu       325804     92.92%     92.98% # Class of committed instruction. (Count)
system.cpu1.commitStats0.committedInstType::IntMult           12      0.00%     92.98% # Class of committed instruction. (Count)
system.cpu1.commitStats0.committedInstType::IntDiv           21      0.01%     92.99% # Class of committed instruction. (Count)
system.cpu1.commitStats0.committedInstType::FloatAdd          172      0.05%     93.04% # Class of committed instruction. (Count)
system.cpu1.commitStats0.committedInstType::FloatCmp            0      0.00%     93.04% # Class of committed instruction. (Count)
system.cpu1.commitStats0.committedInstType::FloatCvt            0      0.00%     93.04% # Class of committed instruction. (Count)
system.cpu1.commitStats0.committedInstType::FloatMult            0      0.00%     93.04% # Class of committed instruction. (Count)
system.cpu1.commitStats0.committedInstType::FloatMultAcc            0      0.00%     93.04% # Class of committed instruction. (Count)
system.cpu1.commitStats0.committedInstType::FloatDiv            0      0.00%     93.04% # Class of committed instruction. (Count)
system.cpu1.commitStats0.committedInstType::FloatMisc            0      0.00%     93.04% # Class of committed instruction. (Count)
system.cpu1.commitStats0.committedInstType::FloatSqrt            0      0.00%     93.04% # Class of committed instruction. (Count)
system.cpu1.commitStats0.committedInstType::SimdAdd            8      0.00%     93.04% # Class of committed instruction. (Count)
system.cpu1.commitStats0.committedInstType::SimdAddAcc            0      0.00%     93.04% # Class of committed instruction. (Count)
system.cpu1.commitStats0.committedInstType::SimdAlu           96      0.03%     93.07% # Class of committed instruction. (Count)
system.cpu1.commitStats0.committedInstType::SimdCmp            0      0.00%     93.07% # Class of committed instruction. (Count)
system.cpu1.commitStats0.committedInstType::SimdCvt           48      0.01%     93.08% # Class of committed instruction. (Count)
system.cpu1.commitStats0.committedInstType::SimdMisc          229      0.07%     93.15% # Class of committed instruction. (Count)
system.cpu1.commitStats0.committedInstType::SimdMult            0      0.00%     93.15% # Class of committed instruction. (Count)
system.cpu1.commitStats0.committedInstType::SimdMultAcc            0      0.00%     93.15% # Class of committed instruction. (Count)
system.cpu1.commitStats0.committedInstType::SimdMatMultAcc            0      0.00%     93.15% # Class of committed instruction. (Count)
system.cpu1.commitStats0.committedInstType::SimdShift            0      0.00%     93.15% # Class of committed instruction. (Count)
system.cpu1.commitStats0.committedInstType::SimdShiftAcc            0      0.00%     93.15% # Class of committed instruction. (Count)
system.cpu1.commitStats0.committedInstType::SimdDiv            0      0.00%     93.15% # Class of committed instruction. (Count)
system.cpu1.commitStats0.committedInstType::SimdSqrt            0      0.00%     93.15% # Class of committed instruction. (Count)
system.cpu1.commitStats0.committedInstType::SimdFloatAdd            0      0.00%     93.15% # Class of committed instruction. (Count)
system.cpu1.commitStats0.committedInstType::SimdFloatAlu            0      0.00%     93.15% # Class of committed instruction. (Count)
system.cpu1.commitStats0.committedInstType::SimdFloatCmp            0      0.00%     93.15% # Class of committed instruction. (Count)
system.cpu1.commitStats0.committedInstType::SimdFloatCvt            0      0.00%     93.15% # Class of committed instruction. (Count)
system.cpu1.commitStats0.committedInstType::SimdFloatDiv            0      0.00%     93.15% # Class of committed instruction. (Count)
system.cpu1.commitStats0.committedInstType::SimdFloatMisc            0      0.00%     93.15% # Class of committed instruction. (Count)
system.cpu1.commitStats0.committedInstType::SimdFloatMult            0      0.00%     93.15% # Class of committed instruction. (Count)
system.cpu1.commitStats0.committedInstType::SimdFloatMultAcc            0      0.00%     93.15% # Class of committed instruction. (Count)
system.cpu1.commitStats0.committedInstType::SimdFloatMatMultAcc            0      0.00%     93.15% # Class of committed instruction. (Count)
system.cpu1.commitStats0.committedInstType::SimdFloatSqrt            0      0.00%     93.15% # Class of committed instruction. (Count)
system.cpu1.commitStats0.committedInstType::SimdReduceAdd            0      0.00%     93.15% # Class of committed instruction. (Count)
system.cpu1.commitStats0.committedInstType::SimdReduceAlu            0      0.00%     93.15% # Class of committed instruction. (Count)
system.cpu1.commitStats0.committedInstType::SimdReduceCmp            0      0.00%     93.15% # Class of committed instruction. (Count)
system.cpu1.commitStats0.committedInstType::SimdFloatReduceAdd            0      0.00%     93.15% # Class of committed instruction. (Count)
system.cpu1.commitStats0.committedInstType::SimdFloatReduceCmp            0      0.00%     93.15% # Class of committed instruction. (Count)
system.cpu1.commitStats0.committedInstType::SimdAes            0      0.00%     93.15% # Class of committed instruction. (Count)
system.cpu1.commitStats0.committedInstType::SimdAesMix            0      0.00%     93.15% # Class of committed instruction. (Count)
system.cpu1.commitStats0.committedInstType::SimdSha1Hash            0      0.00%     93.15% # Class of committed instruction. (Count)
system.cpu1.commitStats0.committedInstType::SimdSha1Hash2            0      0.00%     93.15% # Class of committed instruction. (Count)
system.cpu1.commitStats0.committedInstType::SimdSha256Hash            0      0.00%     93.15% # Class of committed instruction. (Count)
system.cpu1.commitStats0.committedInstType::SimdSha256Hash2            0      0.00%     93.15% # Class of committed instruction. (Count)
system.cpu1.commitStats0.committedInstType::SimdShaSigma2            0      0.00%     93.15% # Class of committed instruction. (Count)
system.cpu1.commitStats0.committedInstType::SimdShaSigma3            0      0.00%     93.15% # Class of committed instruction. (Count)
system.cpu1.commitStats0.committedInstType::SimdPredAlu            0      0.00%     93.15% # Class of committed instruction. (Count)
system.cpu1.commitStats0.committedInstType::Matrix            0      0.00%     93.15% # Class of committed instruction. (Count)
system.cpu1.commitStats0.committedInstType::MatrixMov            0      0.00%     93.15% # Class of committed instruction. (Count)
system.cpu1.commitStats0.committedInstType::MatrixOP            0      0.00%     93.15% # Class of committed instruction. (Count)
system.cpu1.commitStats0.committedInstType::MemRead        12018      3.43%     96.57% # Class of committed instruction. (Count)
system.cpu1.commitStats0.committedInstType::MemWrite        11370      3.24%     99.82% # Class of committed instruction. (Count)
system.cpu1.commitStats0.committedInstType::FloatMemRead          121      0.03%     99.85% # Class of committed instruction. (Count)
system.cpu1.commitStats0.committedInstType::FloatMemWrite          523      0.15%    100.00% # Class of committed instruction. (Count)
system.cpu1.commitStats0.committedInstType::IprAccess            0      0.00%    100.00% # Class of committed instruction. (Count)
system.cpu1.commitStats0.committedInstType::InstPrefetch            0      0.00%    100.00% # Class of committed instruction. (Count)
system.cpu1.commitStats0.committedInstType::SimdUnitStrideLoad            0      0.00%    100.00% # Class of committed instruction. (Count)
system.cpu1.commitStats0.committedInstType::SimdUnitStrideStore            0      0.00%    100.00% # Class of committed instruction. (Count)
system.cpu1.commitStats0.committedInstType::SimdUnitStrideMaskLoad            0      0.00%    100.00% # Class of committed instruction. (Count)
system.cpu1.commitStats0.committedInstType::SimdUnitStrideMaskStore            0      0.00%    100.00% # Class of committed instruction. (Count)
system.cpu1.commitStats0.committedInstType::SimdStridedLoad            0      0.00%    100.00% # Class of committed instruction. (Count)
system.cpu1.commitStats0.committedInstType::SimdStridedStore            0      0.00%    100.00% # Class of committed instruction. (Count)
system.cpu1.commitStats0.committedInstType::SimdIndexedLoad            0      0.00%    100.00% # Class of committed instruction. (Count)
system.cpu1.commitStats0.committedInstType::SimdIndexedStore            0      0.00%    100.00% # Class of committed instruction. (Count)
system.cpu1.commitStats0.committedInstType::SimdWholeRegisterLoad            0      0.00%    100.00% # Class of committed instruction. (Count)
system.cpu1.commitStats0.committedInstType::SimdWholeRegisterStore            0      0.00%    100.00% # Class of committed instruction. (Count)
system.cpu1.commitStats0.committedInstType::SimdUnitStrideFaultOnlyFirstLoad            0      0.00%    100.00% # Class of committed instruction. (Count)
system.cpu1.commitStats0.committedInstType::SimdUnitStrideSegmentedLoad            0      0.00%    100.00% # Class of committed instruction. (Count)
system.cpu1.commitStats0.committedInstType::SimdUnitStrideSegmentedStore            0      0.00%    100.00% # Class of committed instruction. (Count)
system.cpu1.commitStats0.committedInstType::SimdUnitStrideSegmentedFaultOnlyFirstLoad            0      0.00%    100.00% # Class of committed instruction. (Count)
system.cpu1.commitStats0.committedInstType::SimdStrideSegmentedLoad            0      0.00%    100.00% # Class of committed instruction. (Count)
system.cpu1.commitStats0.committedInstType::SimdStrideSegmentedStore            0      0.00%    100.00% # Class of committed instruction. (Count)
system.cpu1.commitStats0.committedInstType::SimdExt            0      0.00%    100.00% # Class of committed instruction. (Count)
system.cpu1.commitStats0.committedInstType::SimdFloatExt            0      0.00%    100.00% # Class of committed instruction. (Count)
system.cpu1.commitStats0.committedInstType::SimdConfig            0      0.00%    100.00% # Class of committed instruction. (Count)
system.cpu1.commitStats0.committedInstType::total       350632                       # Class of committed instruction. (Count)
system.cpu1.commitStats0.committedControl::IsControl        72264                       # Class of control type instructions committed (Count)
system.cpu1.commitStats0.committedControl::IsDirectControl        72016                       # Class of control type instructions committed (Count)
system.cpu1.commitStats0.committedControl::IsIndirectControl          248                       # Class of control type instructions committed (Count)
system.cpu1.commitStats0.committedControl::IsCondControl        51728                       # Class of control type instructions committed (Count)
system.cpu1.commitStats0.committedControl::IsUncondControl        20536                       # Class of control type instructions committed (Count)
system.cpu1.commitStats0.committedControl::IsCall          180                       # Class of control type instructions committed (Count)
system.cpu1.commitStats0.committedControl::IsReturn          175                       # Class of control type instructions committed (Count)
system.cpu1.exec_context.thread_0.numMatAluAccesses            0                       # Number of matrix alu accesses (Count)
system.cpu1.exec_context.thread_0.numCallsReturns          355                       # Number of times a function call or return occured (Count)
system.cpu1.exec_context.thread_0.numMatInsts            0                       # Number of matrix instructions (Count)
system.cpu1.exec_context.thread_0.numIdleCycles   613.879627                       # Number of idle cycles (Cycle)
system.cpu1.exec_context.thread_0.numBusyCycles 3079506.120373                       # Number of busy cycles (Cycle)
system.cpu1.exec_context.thread_0.notIdleFraction     0.999801                       # Percentage of non-idle cycles (Ratio)
system.cpu1.exec_context.thread_0.idleFraction     0.000199                       # Percentage of idle cycles (Ratio)
system.cpu1.executeStats0.numInsts                  0                       # Number of executed instructions (Count)
system.cpu1.executeStats0.numNop                    0                       # Number of nop insts executed (Count)
system.cpu1.executeStats0.numBranches               0                       # Number of branches executed (Count)
system.cpu1.executeStats0.numLoadInsts              0                       # Number of load instructions executed (Count)
system.cpu1.executeStats0.numStoreInsts         24032                       # Number of stores executed (Count)
system.cpu1.executeStats0.instRate                  0                       # Inst execution rate ((Count/Cycle))
system.cpu1.executeStats0.numFpAluAccesses         1354                       # Number of float alu accesses (Count)
system.cpu1.executeStats0.numFpRegReads          1462                       # Number of times the floating registers were read (Count)
system.cpu1.executeStats0.numFpRegWrites          785                       # Number of times the floating registers were written (Count)
system.cpu1.executeStats0.numIntAluAccesses       349771                       # Number of integer alu accesses (Count)
system.cpu1.executeStats0.numIntRegReads       321640                       # Number of times the integer registers were read (Count)
system.cpu1.executeStats0.numIntRegWrites       213916                       # Number of times the integer registers were written (Count)
system.cpu1.executeStats0.numMemRefs            24032                       # Number of memory refs (Count)
system.cpu1.executeStats0.numMiscRegReads       168775                       # Number of times the Misc registers were read (Count)
system.cpu1.executeStats0.numVecAluAccesses            0                       # Number of vector alu accesses (Count)
system.cpu1.executeStats0.numDiscardedOps            0                       # Number of ops (including micro ops) which were discarded before commit (Count)
system.cpu1.fetchStats0.numInsts               170622                       # Number of instructions fetched (thread level) (Count)
system.cpu1.fetchStats0.numOps                 350632                       # Number of ops (including micro ops) fetched (thread level) (Count)
system.cpu1.fetchStats0.fetchRate            0.055395                       # Number of inst fetches per cycle ((Count/Cycle))
system.cpu1.fetchStats0.numBranches             72264                       # Number of branches fetched (Count)
system.cpu1.fetchStats0.branchRate           0.023461                       # Number of branch fetches per cycle (Ratio)
system.cpu1.fetchStats0.numFetchSuspends            0                       # Number of times Execute suspended instruction fetching (Count)
system.cpu1.interrupts.clk_domain.clock          8000                       # Clock period in ticks (Tick)
system.cpu1.mmu.dtb.rdAccesses                  12143                       # TLB accesses on read requests (Count)
system.cpu1.mmu.dtb.wrAccesses                  11893                       # TLB accesses on write requests (Count)
system.cpu1.mmu.dtb.rdMisses                       17                       # TLB misses on read requests (Count)
system.cpu1.mmu.dtb.wrMisses                        9                       # TLB misses on write requests (Count)
system.cpu1.mmu.dtb.walker.power_state.pwrStateResidencyTicks::UNDEFINED   1540367000                       # Cumulative time (in ticks) in various power states (Tick)
system.cpu1.mmu.itb.rdAccesses                      0                       # TLB accesses on read requests (Count)
system.cpu1.mmu.itb.wrAccesses                 234152                       # TLB accesses on write requests (Count)
system.cpu1.mmu.itb.rdMisses                        0                       # TLB misses on read requests (Count)
system.cpu1.mmu.itb.wrMisses                       47                       # TLB misses on write requests (Count)
system.cpu1.mmu.itb.walker.power_state.pwrStateResidencyTicks::UNDEFINED   1540367000                       # Cumulative time (in ticks) in various power states (Tick)
system.cpu1.power_state.pwrStateResidencyTicks::ON   1540367000                       # Cumulative time (in ticks) in various power states (Tick)
system.cpu1.thread_0.numInsts                       0                       # Number of Instructions committed (Count)
system.cpu1.thread_0.numOps                         0                       # Number of Ops committed (Count)
system.cpu1.thread_0.numMemRefs                     0                       # Number of Memory References (Count)
system.cpu1.workload.numSyscalls                   15                       # Number of system calls (Count)
system.cpu2.numCycles                         3079992                       # Number of cpu cycles simulated (Cycle)
system.cpu2.cpi                             18.068390                       # CPI: cycles per instruction (core level) ((Cycle/Count))
system.cpu2.ipc                              0.055345                       # IPC: instructions per cycle (core level) ((Count/Cycle))
system.cpu2.numWorkItemsStarted                     0                       # Number of work items this cpu started (Count)
system.cpu2.numWorkItemsCompleted                   0                       # Number of work items this cpu completed (Count)
system.cpu2.commitStats0.numInsts              170463                       # Number of instructions committed (thread level) (Count)
system.cpu2.commitStats0.numOps                350261                       # Number of ops (including micro ops) committed (thread level) (Count)
system.cpu2.commitStats0.numInstsNotNOP             0                       # Number of instructions committed excluding NOPs or prefetches (Count)
system.cpu2.commitStats0.numOpsNotNOP               0                       # Number of Ops (including micro ops) Simulated (Count)
system.cpu2.commitStats0.cpi                18.068390                       # CPI: cycles per instruction (thread level) ((Cycle/Count))
system.cpu2.commitStats0.ipc                 0.055345                       # IPC: instructions per cycle (thread level) ((Count/Cycle))
system.cpu2.commitStats0.numMemRefs                 0                       # Number of memory references committed (Count)
system.cpu2.commitStats0.numFpInsts              1354                       # Number of float instructions (Count)
system.cpu2.commitStats0.numIntInsts           349400                       # Number of integer instructions (Count)
system.cpu2.commitStats0.numLoadInsts           12035                       # Number of load instructions (Count)
system.cpu2.commitStats0.numStoreInsts          11893                       # Number of store instructions (Count)
system.cpu2.commitStats0.numVecInsts                0                       # Number of vector instructions (Count)
system.cpu2.commitStats0.committedInstType::No_OpClass          210      0.06%      0.06% # Class of committed instruction. (Count)
system.cpu2.commitStats0.committedInstType::IntAlu       325537     92.94%     93.00% # Class of committed instruction. (Count)
system.cpu2.commitStats0.committedInstType::IntMult           12      0.00%     93.00% # Class of committed instruction. (Count)
system.cpu2.commitStats0.committedInstType::IntDiv           21      0.01%     93.01% # Class of committed instruction. (Count)
system.cpu2.commitStats0.committedInstType::FloatAdd          172      0.05%     93.06% # Class of committed instruction. (Count)
system.cpu2.commitStats0.committedInstType::FloatCmp            0      0.00%     93.06% # Class of committed instruction. (Count)
system.cpu2.commitStats0.committedInstType::FloatCvt            0      0.00%     93.06% # Class of committed instruction. (Count)
system.cpu2.commitStats0.committedInstType::FloatMult            0      0.00%     93.06% # Class of committed instruction. (Count)
system.cpu2.commitStats0.committedInstType::FloatMultAcc            0      0.00%     93.06% # Class of committed instruction. (Count)
system.cpu2.commitStats0.committedInstType::FloatDiv            0      0.00%     93.06% # Class of committed instruction. (Count)
system.cpu2.commitStats0.committedInstType::FloatMisc            0      0.00%     93.06% # Class of committed instruction. (Count)
system.cpu2.commitStats0.committedInstType::FloatSqrt            0      0.00%     93.06% # Class of committed instruction. (Count)
system.cpu2.commitStats0.committedInstType::SimdAdd            8      0.00%     93.06% # Class of committed instruction. (Count)
system.cpu2.commitStats0.committedInstType::SimdAddAcc            0      0.00%     93.06% # Class of committed instruction. (Count)
system.cpu2.commitStats0.committedInstType::SimdAlu           96      0.03%     93.09% # Class of committed instruction. (Count)
system.cpu2.commitStats0.committedInstType::SimdCmp            0      0.00%     93.09% # Class of committed instruction. (Count)
system.cpu2.commitStats0.committedInstType::SimdCvt           48      0.01%     93.10% # Class of committed instruction. (Count)
system.cpu2.commitStats0.committedInstType::SimdMisc          229      0.07%     93.17% # Class of committed instruction. (Count)
system.cpu2.commitStats0.committedInstType::SimdMult            0      0.00%     93.17% # Class of committed instruction. (Count)
system.cpu2.commitStats0.committedInstType::SimdMultAcc            0      0.00%     93.17% # Class of committed instruction. (Count)
system.cpu2.commitStats0.committedInstType::SimdMatMultAcc            0      0.00%     93.17% # Class of committed instruction. (Count)
system.cpu2.commitStats0.committedInstType::SimdShift            0      0.00%     93.17% # Class of committed instruction. (Count)
system.cpu2.commitStats0.committedInstType::SimdShiftAcc            0      0.00%     93.17% # Class of committed instruction. (Count)
system.cpu2.commitStats0.committedInstType::SimdDiv            0      0.00%     93.17% # Class of committed instruction. (Count)
system.cpu2.commitStats0.committedInstType::SimdSqrt            0      0.00%     93.17% # Class of committed instruction. (Count)
system.cpu2.commitStats0.committedInstType::SimdFloatAdd            0      0.00%     93.17% # Class of committed instruction. (Count)
system.cpu2.commitStats0.committedInstType::SimdFloatAlu            0      0.00%     93.17% # Class of committed instruction. (Count)
system.cpu2.commitStats0.committedInstType::SimdFloatCmp            0      0.00%     93.17% # Class of committed instruction. (Count)
system.cpu2.commitStats0.committedInstType::SimdFloatCvt            0      0.00%     93.17% # Class of committed instruction. (Count)
system.cpu2.commitStats0.committedInstType::SimdFloatDiv            0      0.00%     93.17% # Class of committed instruction. (Count)
system.cpu2.commitStats0.committedInstType::SimdFloatMisc            0      0.00%     93.17% # Class of committed instruction. (Count)
system.cpu2.commitStats0.committedInstType::SimdFloatMult            0      0.00%     93.17% # Class of committed instruction. (Count)
system.cpu2.commitStats0.committedInstType::SimdFloatMultAcc            0      0.00%     93.17% # Class of committed instruction. (Count)
system.cpu2.commitStats0.committedInstType::SimdFloatMatMultAcc            0      0.00%     93.17% # Class of committed instruction. (Count)
system.cpu2.commitStats0.committedInstType::SimdFloatSqrt            0      0.00%     93.17% # Class of committed instruction. (Count)
system.cpu2.commitStats0.committedInstType::SimdReduceAdd            0      0.00%     93.17% # Class of committed instruction. (Count)
system.cpu2.commitStats0.committedInstType::SimdReduceAlu            0      0.00%     93.17% # Class of committed instruction. (Count)
system.cpu2.commitStats0.committedInstType::SimdReduceCmp            0      0.00%     93.17% # Class of committed instruction. (Count)
system.cpu2.commitStats0.committedInstType::SimdFloatReduceAdd            0      0.00%     93.17% # Class of committed instruction. (Count)
system.cpu2.commitStats0.committedInstType::SimdFloatReduceCmp            0      0.00%     93.17% # Class of committed instruction. (Count)
system.cpu2.commitStats0.committedInstType::SimdAes            0      0.00%     93.17% # Class of committed instruction. (Count)
system.cpu2.commitStats0.committedInstType::SimdAesMix            0      0.00%     93.17% # Class of committed instruction. (Count)
system.cpu2.commitStats0.committedInstType::SimdSha1Hash            0      0.00%     93.17% # Class of committed instruction. (Count)
system.cpu2.commitStats0.committedInstType::SimdSha1Hash2            0      0.00%     93.17% # Class of committed instruction. (Count)
system.cpu2.commitStats0.committedInstType::SimdSha256Hash            0      0.00%     93.17% # Class of committed instruction. (Count)
system.cpu2.commitStats0.committedInstType::SimdSha256Hash2            0      0.00%     93.17% # Class of committed instruction. (Count)
system.cpu2.commitStats0.committedInstType::SimdShaSigma2            0      0.00%     93.17% # Class of committed instruction. (Count)
system.cpu2.commitStats0.committedInstType::SimdShaSigma3            0      0.00%     93.17% # Class of committed instruction. (Count)
system.cpu2.commitStats0.committedInstType::SimdPredAlu            0      0.00%     93.17% # Class of committed instruction. (Count)
system.cpu2.commitStats0.committedInstType::Matrix            0      0.00%     93.17% # Class of committed instruction. (Count)
system.cpu2.commitStats0.committedInstType::MatrixMov            0      0.00%     93.17% # Class of committed instruction. (Count)
system.cpu2.commitStats0.committedInstType::MatrixOP            0      0.00%     93.17% # Class of committed instruction. (Count)
system.cpu2.commitStats0.committedInstType::MemRead        11914      3.40%     96.57% # Class of committed instruction. (Count)
system.cpu2.commitStats0.committedInstType::MemWrite        11370      3.25%     99.82% # Class of committed instruction. (Count)
system.cpu2.commitStats0.committedInstType::FloatMemRead          121      0.03%     99.85% # Class of committed instruction. (Count)
system.cpu2.commitStats0.committedInstType::FloatMemWrite          523      0.15%    100.00% # Class of committed instruction. (Count)
system.cpu2.commitStats0.committedInstType::IprAccess            0      0.00%    100.00% # Class of committed instruction. (Count)
system.cpu2.commitStats0.committedInstType::InstPrefetch            0      0.00%    100.00% # Class of committed instruction. (Count)
system.cpu2.commitStats0.committedInstType::SimdUnitStrideLoad            0      0.00%    100.00% # Class of committed instruction. (Count)
system.cpu2.commitStats0.committedInstType::SimdUnitStrideStore            0      0.00%    100.00% # Class of committed instruction. (Count)
system.cpu2.commitStats0.committedInstType::SimdUnitStrideMaskLoad            0      0.00%    100.00% # Class of committed instruction. (Count)
system.cpu2.commitStats0.committedInstType::SimdUnitStrideMaskStore            0      0.00%    100.00% # Class of committed instruction. (Count)
system.cpu2.commitStats0.committedInstType::SimdStridedLoad            0      0.00%    100.00% # Class of committed instruction. (Count)
system.cpu2.commitStats0.committedInstType::SimdStridedStore            0      0.00%    100.00% # Class of committed instruction. (Count)
system.cpu2.commitStats0.committedInstType::SimdIndexedLoad            0      0.00%    100.00% # Class of committed instruction. (Count)
system.cpu2.commitStats0.committedInstType::SimdIndexedStore            0      0.00%    100.00% # Class of committed instruction. (Count)
system.cpu2.commitStats0.committedInstType::SimdWholeRegisterLoad            0      0.00%    100.00% # Class of committed instruction. (Count)
system.cpu2.commitStats0.committedInstType::SimdWholeRegisterStore            0      0.00%    100.00% # Class of committed instruction. (Count)
system.cpu2.commitStats0.committedInstType::SimdUnitStrideFaultOnlyFirstLoad            0      0.00%    100.00% # Class of committed instruction. (Count)
system.cpu2.commitStats0.committedInstType::SimdUnitStrideSegmentedLoad            0      0.00%    100.00% # Class of committed instruction. (Count)
system.cpu2.commitStats0.committedInstType::SimdUnitStrideSegmentedStore            0      0.00%    100.00% # Class of committed instruction. (Count)
system.cpu2.commitStats0.committedInstType::SimdUnitStrideSegmentedFaultOnlyFirstLoad            0      0.00%    100.00% # Class of committed instruction. (Count)
system.cpu2.commitStats0.committedInstType::SimdStrideSegmentedLoad            0      0.00%    100.00% # Class of committed instruction. (Count)
system.cpu2.commitStats0.committedInstType::SimdStrideSegmentedStore            0      0.00%    100.00% # Class of committed instruction. (Count)
system.cpu2.commitStats0.committedInstType::SimdExt            0      0.00%    100.00% # Class of committed instruction. (Count)
system.cpu2.commitStats0.committedInstType::SimdFloatExt            0      0.00%    100.00% # Class of committed instruction. (Count)
system.cpu2.commitStats0.committedInstType::SimdConfig            0      0.00%    100.00% # Class of committed instruction. (Count)
system.cpu2.commitStats0.committedInstType::total       350261                       # Class of committed instruction. (Count)
system.cpu2.commitStats0.committedControl::IsControl        72211                       # Class of control type instructions committed (Count)
system.cpu2.commitStats0.committedControl::IsDirectControl        71963                       # Class of control type instructions committed (Count)
system.cpu2.commitStats0.committedControl::IsIndirectControl          248                       # Class of control type instructions committed (Count)
system.cpu2.commitStats0.committedControl::IsCondControl        51675                       # Class of control type instructions committed (Count)
system.cpu2.commitStats0.committedControl::IsUncondControl        20536                       # Class of control type instructions committed (Count)
system.cpu2.commitStats0.committedControl::IsCall          180                       # Class of control type instructions committed (Count)
system.cpu2.commitStats0.committedControl::IsReturn          175                       # Class of control type instructions committed (Count)
system.cpu2.exec_context.thread_0.numMatAluAccesses            0                       # Number of matrix alu accesses (Count)
system.cpu2.exec_context.thread_0.numCallsReturns          355                       # Number of times a function call or return occured (Count)
system.cpu2.exec_context.thread_0.numMatInsts            0                       # Number of matrix instructions (Count)
system.cpu2.exec_context.thread_0.numIdleCycles   741.823287                       # Number of idle cycles (Cycle)
system.cpu2.exec_context.thread_0.numBusyCycles 3079250.176713                       # Number of busy cycles (Cycle)
system.cpu2.exec_context.thread_0.notIdleFraction     0.999759                       # Percentage of non-idle cycles (Ratio)
system.cpu2.exec_context.thread_0.idleFraction     0.000241                       # Percentage of idle cycles (Ratio)
system.cpu2.executeStats0.numInsts                  0                       # Number of executed instructions (Count)
system.cpu2.executeStats0.numNop                    0                       # Number of nop insts executed (Count)
system.cpu2.executeStats0.numBranches               0                       # Number of branches executed (Count)
system.cpu2.executeStats0.numLoadInsts              0                       # Number of load instructions executed (Count)
system.cpu2.executeStats0.numStoreInsts         23928                       # Number of stores executed (Count)
system.cpu2.executeStats0.instRate                  0                       # Inst execution rate ((Count/Cycle))
system.cpu2.executeStats0.numFpAluAccesses         1354                       # Number of float alu accesses (Count)
system.cpu2.executeStats0.numFpRegReads          1462                       # Number of times the floating registers were read (Count)
system.cpu2.executeStats0.numFpRegWrites          785                       # Number of times the floating registers were written (Count)
system.cpu2.executeStats0.numIntAluAccesses       349400                       # Number of integer alu accesses (Count)
system.cpu2.executeStats0.numIntRegReads       321324                       # Number of times the integer registers were read (Count)
system.cpu2.executeStats0.numIntRegWrites       213651                       # Number of times the integer registers were written (Count)
system.cpu2.executeStats0.numMemRefs            23928                       # Number of memory refs (Count)
system.cpu2.executeStats0.numMiscRegReads       168565                       # Number of times the Misc registers were read (Count)
system.cpu2.executeStats0.numVecAluAccesses            0                       # Number of vector alu accesses (Count)
system.cpu2.executeStats0.numDiscardedOps            0                       # Number of ops (including micro ops) which were discarded before commit (Count)
system.cpu2.fetchStats0.numInsts               170463                       # Number of instructions fetched (thread level) (Count)
system.cpu2.fetchStats0.numOps                 350261                       # Number of ops (including micro ops) fetched (thread level) (Count)
system.cpu2.fetchStats0.fetchRate            0.055345                       # Number of inst fetches per cycle ((Count/Cycle))
system.cpu2.fetchStats0.numBranches             72211                       # Number of branches fetched (Count)
system.cpu2.fetchStats0.branchRate           0.023445                       # Number of branch fetches per cycle (Ratio)
system.cpu2.fetchStats0.numFetchSuspends            0                       # Number of times Execute suspended instruction fetching (Count)
system.cpu2.interrupts.clk_domain.clock          8000                       # Clock period in ticks (Tick)
system.cpu2.mmu.dtb.rdAccesses                  12039                       # TLB accesses on read requests (Count)
system.cpu2.mmu.dtb.wrAccesses                  11893                       # TLB accesses on write requests (Count)
system.cpu2.mmu.dtb.rdMisses                       17                       # TLB misses on read requests (Count)
system.cpu2.mmu.dtb.wrMisses                        9                       # TLB misses on write requests (Count)
system.cpu2.mmu.dtb.walker.power_state.pwrStateResidencyTicks::UNDEFINED   1540367000                       # Cumulative time (in ticks) in various power states (Tick)
system.cpu2.mmu.itb.rdAccesses                      0                       # TLB accesses on read requests (Count)
system.cpu2.mmu.itb.wrAccesses                 233940                       # TLB accesses on write requests (Count)
system.cpu2.mmu.itb.rdMisses                        0                       # TLB misses on read requests (Count)
system.cpu2.mmu.itb.wrMisses                       47                       # TLB misses on write requests (Count)
system.cpu2.mmu.itb.walker.power_state.pwrStateResidencyTicks::UNDEFINED   1540367000                       # Cumulative time (in ticks) in various power states (Tick)
system.cpu2.power_state.pwrStateResidencyTicks::ON   1540367000                       # Cumulative time (in ticks) in various power states (Tick)
system.cpu2.thread_0.numInsts                       0                       # Number of Instructions committed (Count)
system.cpu2.thread_0.numOps                         0                       # Number of Ops committed (Count)
system.cpu2.thread_0.numMemRefs                     0                       # Number of Memory References (Count)
system.cpu2.workload.numSyscalls                   15                       # Number of system calls (Count)
system.cpu3.numCycles                         3080043                       # Number of cpu cycles simulated (Cycle)
system.cpu3.cpi                             18.064556                       # CPI: cycles per instruction (core level) ((Cycle/Count))
system.cpu3.ipc                              0.055357                       # IPC: instructions per cycle (core level) ((Count/Cycle))
system.cpu3.numWorkItemsStarted                     0                       # Number of work items this cpu started (Count)
system.cpu3.numWorkItemsCompleted                   0                       # Number of work items this cpu completed (Count)
system.cpu3.commitStats0.numInsts              170502                       # Number of instructions committed (thread level) (Count)
system.cpu3.commitStats0.numOps                350350                       # Number of ops (including micro ops) committed (thread level) (Count)
system.cpu3.commitStats0.numInstsNotNOP             0                       # Number of instructions committed excluding NOPs or prefetches (Count)
system.cpu3.commitStats0.numOpsNotNOP               0                       # Number of Ops (including micro ops) Simulated (Count)
system.cpu3.commitStats0.cpi                18.064556                       # CPI: cycles per instruction (thread level) ((Cycle/Count))
system.cpu3.commitStats0.ipc                 0.055357                       # IPC: instructions per cycle (thread level) ((Count/Cycle))
system.cpu3.commitStats0.numMemRefs                 0                       # Number of memory references committed (Count)
system.cpu3.commitStats0.numFpInsts              1354                       # Number of float instructions (Count)
system.cpu3.commitStats0.numIntInsts           349490                       # Number of integer instructions (Count)
system.cpu3.commitStats0.numLoadInsts           12048                       # Number of load instructions (Count)
system.cpu3.commitStats0.numStoreInsts          11895                       # Number of store instructions (Count)
system.cpu3.commitStats0.numVecInsts                0                       # Number of vector instructions (Count)
system.cpu3.commitStats0.committedInstType::No_OpClass          209      0.06%      0.06% # Class of committed instruction. (Count)
system.cpu3.commitStats0.committedInstType::IntAlu       325612     92.94%     93.00% # Class of committed instruction. (Count)
system.cpu3.commitStats0.committedInstType::IntMult           12      0.00%     93.00% # Class of committed instruction. (Count)
system.cpu3.commitStats0.committedInstType::IntDiv           21      0.01%     93.01% # Class of committed instruction. (Count)
system.cpu3.commitStats0.committedInstType::FloatAdd          172      0.05%     93.06% # Class of committed instruction. (Count)
system.cpu3.commitStats0.committedInstType::FloatCmp            0      0.00%     93.06% # Class of committed instruction. (Count)
system.cpu3.commitStats0.committedInstType::FloatCvt            0      0.00%     93.06% # Class of committed instruction. (Count)
system.cpu3.commitStats0.committedInstType::FloatMult            0      0.00%     93.06% # Class of committed instruction. (Count)
system.cpu3.commitStats0.committedInstType::FloatMultAcc            0      0.00%     93.06% # Class of committed instruction. (Count)
system.cpu3.commitStats0.committedInstType::FloatDiv            0      0.00%     93.06% # Class of committed instruction. (Count)
system.cpu3.commitStats0.committedInstType::FloatMisc            0      0.00%     93.06% # Class of committed instruction. (Count)
system.cpu3.commitStats0.committedInstType::FloatSqrt            0      0.00%     93.06% # Class of committed instruction. (Count)
system.cpu3.commitStats0.committedInstType::SimdAdd            8      0.00%     93.06% # Class of committed instruction. (Count)
system.cpu3.commitStats0.committedInstType::SimdAddAcc            0      0.00%     93.06% # Class of committed instruction. (Count)
system.cpu3.commitStats0.committedInstType::SimdAlu           96      0.03%     93.09% # Class of committed instruction. (Count)
system.cpu3.commitStats0.committedInstType::SimdCmp            0      0.00%     93.09% # Class of committed instruction. (Count)
system.cpu3.commitStats0.committedInstType::SimdCvt           48      0.01%     93.10% # Class of committed instruction. (Count)
system.cpu3.commitStats0.committedInstType::SimdMisc          229      0.07%     93.17% # Class of committed instruction. (Count)
system.cpu3.commitStats0.committedInstType::SimdMult            0      0.00%     93.17% # Class of committed instruction. (Count)
system.cpu3.commitStats0.committedInstType::SimdMultAcc            0      0.00%     93.17% # Class of committed instruction. (Count)
system.cpu3.commitStats0.committedInstType::SimdMatMultAcc            0      0.00%     93.17% # Class of committed instruction. (Count)
system.cpu3.commitStats0.committedInstType::SimdShift            0      0.00%     93.17% # Class of committed instruction. (Count)
system.cpu3.commitStats0.committedInstType::SimdShiftAcc            0      0.00%     93.17% # Class of committed instruction. (Count)
system.cpu3.commitStats0.committedInstType::SimdDiv            0      0.00%     93.17% # Class of committed instruction. (Count)
system.cpu3.commitStats0.committedInstType::SimdSqrt            0      0.00%     93.17% # Class of committed instruction. (Count)
system.cpu3.commitStats0.committedInstType::SimdFloatAdd            0      0.00%     93.17% # Class of committed instruction. (Count)
system.cpu3.commitStats0.committedInstType::SimdFloatAlu            0      0.00%     93.17% # Class of committed instruction. (Count)
system.cpu3.commitStats0.committedInstType::SimdFloatCmp            0      0.00%     93.17% # Class of committed instruction. (Count)
system.cpu3.commitStats0.committedInstType::SimdFloatCvt            0      0.00%     93.17% # Class of committed instruction. (Count)
system.cpu3.commitStats0.committedInstType::SimdFloatDiv            0      0.00%     93.17% # Class of committed instruction. (Count)
system.cpu3.commitStats0.committedInstType::SimdFloatMisc            0      0.00%     93.17% # Class of committed instruction. (Count)
system.cpu3.commitStats0.committedInstType::SimdFloatMult            0      0.00%     93.17% # Class of committed instruction. (Count)
system.cpu3.commitStats0.committedInstType::SimdFloatMultAcc            0      0.00%     93.17% # Class of committed instruction. (Count)
system.cpu3.commitStats0.committedInstType::SimdFloatMatMultAcc            0      0.00%     93.17% # Class of committed instruction. (Count)
system.cpu3.commitStats0.committedInstType::SimdFloatSqrt            0      0.00%     93.17% # Class of committed instruction. (Count)
system.cpu3.commitStats0.committedInstType::SimdReduceAdd            0      0.00%     93.17% # Class of committed instruction. (Count)
system.cpu3.commitStats0.committedInstType::SimdReduceAlu            0      0.00%     93.17% # Class of committed instruction. (Count)
system.cpu3.commitStats0.committedInstType::SimdReduceCmp            0      0.00%     93.17% # Class of committed instruction. (Count)
system.cpu3.commitStats0.committedInstType::SimdFloatReduceAdd            0      0.00%     93.17% # Class of committed instruction. (Count)
system.cpu3.commitStats0.committedInstType::SimdFloatReduceCmp            0      0.00%     93.17% # Class of committed instruction. (Count)
system.cpu3.commitStats0.committedInstType::SimdAes            0      0.00%     93.17% # Class of committed instruction. (Count)
system.cpu3.commitStats0.committedInstType::SimdAesMix            0      0.00%     93.17% # Class of committed instruction. (Count)
system.cpu3.commitStats0.committedInstType::SimdSha1Hash            0      0.00%     93.17% # Class of committed instruction. (Count)
system.cpu3.commitStats0.committedInstType::SimdSha1Hash2            0      0.00%     93.17% # Class of committed instruction. (Count)
system.cpu3.commitStats0.committedInstType::SimdSha256Hash            0      0.00%     93.17% # Class of committed instruction. (Count)
system.cpu3.commitStats0.committedInstType::SimdSha256Hash2            0      0.00%     93.17% # Class of committed instruction. (Count)
system.cpu3.commitStats0.committedInstType::SimdShaSigma2            0      0.00%     93.17% # Class of committed instruction. (Count)
system.cpu3.commitStats0.committedInstType::SimdShaSigma3            0      0.00%     93.17% # Class of committed instruction. (Count)
system.cpu3.commitStats0.committedInstType::SimdPredAlu            0      0.00%     93.17% # Class of committed instruction. (Count)
system.cpu3.commitStats0.committedInstType::Matrix            0      0.00%     93.17% # Class of committed instruction. (Count)
system.cpu3.commitStats0.committedInstType::MatrixMov            0      0.00%     93.17% # Class of committed instruction. (Count)
system.cpu3.commitStats0.committedInstType::MatrixOP            0      0.00%     93.17% # Class of committed instruction. (Count)
system.cpu3.commitStats0.committedInstType::MemRead        11927      3.40%     96.57% # Class of committed instruction. (Count)
system.cpu3.commitStats0.committedInstType::MemWrite        11372      3.25%     99.82% # Class of committed instruction. (Count)
system.cpu3.commitStats0.committedInstType::FloatMemRead          121      0.03%     99.85% # Class of committed instruction. (Count)
system.cpu3.commitStats0.committedInstType::FloatMemWrite          523      0.15%    100.00% # Class of committed instruction. (Count)
system.cpu3.commitStats0.committedInstType::IprAccess            0      0.00%    100.00% # Class of committed instruction. (Count)
system.cpu3.commitStats0.committedInstType::InstPrefetch            0      0.00%    100.00% # Class of committed instruction. (Count)
system.cpu3.commitStats0.committedInstType::SimdUnitStrideLoad            0      0.00%    100.00% # Class of committed instruction. (Count)
system.cpu3.commitStats0.committedInstType::SimdUnitStrideStore            0      0.00%    100.00% # Class of committed instruction. (Count)
system.cpu3.commitStats0.committedInstType::SimdUnitStrideMaskLoad            0      0.00%    100.00% # Class of committed instruction. (Count)
system.cpu3.commitStats0.committedInstType::SimdUnitStrideMaskStore            0      0.00%    100.00% # Class of committed instruction. (Count)
system.cpu3.commitStats0.committedInstType::SimdStridedLoad            0      0.00%    100.00% # Class of committed instruction. (Count)
system.cpu3.commitStats0.committedInstType::SimdStridedStore            0      0.00%    100.00% # Class of committed instruction. (Count)
system.cpu3.commitStats0.committedInstType::SimdIndexedLoad            0      0.00%    100.00% # Class of committed instruction. (Count)
system.cpu3.commitStats0.committedInstType::SimdIndexedStore            0      0.00%    100.00% # Class of committed instruction. (Count)
system.cpu3.commitStats0.committedInstType::SimdWholeRegisterLoad            0      0.00%    100.00% # Class of committed instruction. (Count)
system.cpu3.commitStats0.committedInstType::SimdWholeRegisterStore            0      0.00%    100.00% # Class of committed instruction. (Count)
system.cpu3.commitStats0.committedInstType::SimdUnitStrideFaultOnlyFirstLoad            0      0.00%    100.00% # Class of committed instruction. (Count)
system.cpu3.commitStats0.committedInstType::SimdUnitStrideSegmentedLoad            0      0.00%    100.00% # Class of committed instruction. (Count)
system.cpu3.commitStats0.committedInstType::SimdUnitStrideSegmentedStore            0      0.00%    100.00% # Class of committed instruction. (Count)
system.cpu3.commitStats0.committedInstType::SimdUnitStrideSegmentedFaultOnlyFirstLoad            0      0.00%    100.00% # Class of committed instruction. (Count)
system.cpu3.commitStats0.committedInstType::SimdStrideSegmentedLoad            0      0.00%    100.00% # Class of committed instruction. (Count)
system.cpu3.commitStats0.committedInstType::SimdStrideSegmentedStore            0      0.00%    100.00% # Class of committed instruction. (Count)
system.cpu3.commitStats0.committedInstType::SimdExt            0      0.00%    100.00% # Class of committed instruction. (Count)
system.cpu3.commitStats0.committedInstType::SimdFloatExt            0      0.00%    100.00% # Class of committed instruction. (Count)
system.cpu3.commitStats0.committedInstType::SimdConfig            0      0.00%    100.00% # Class of committed instruction. (Count)
system.cpu3.commitStats0.committedInstType::total       350350                       # Class of committed instruction. (Count)
system.cpu3.commitStats0.committedControl::IsControl        72223                       # Class of control type instructions committed (Count)
system.cpu3.commitStats0.committedControl::IsDirectControl        71975                       # Class of control type instructions committed (Count)
system.cpu3.commitStats0.committedControl::IsIndirectControl          248                       # Class of control type instructions committed (Count)
system.cpu3.commitStats0.committedControl::IsCondControl        51687                       # Class of control type instructions committed (Count)
system.cpu3.commitStats0.committedControl::IsUncondControl        20536                       # Class of control type instructions committed (Count)
system.cpu3.commitStats0.committedControl::IsCall          180                       # Class of control type instructions committed (Count)
system.cpu3.commitStats0.committedControl::IsReturn          175                       # Class of control type instructions committed (Count)
system.cpu3.exec_context.thread_0.numMatAluAccesses            0                       # Number of matrix alu accesses (Count)
system.cpu3.exec_context.thread_0.numCallsReturns          355                       # Number of times a function call or return occured (Count)
system.cpu3.exec_context.thread_0.numMatInsts            0                       # Number of matrix instructions (Count)
system.cpu3.exec_context.thread_0.numIdleCycles   690.847010                       # Number of idle cycles (Cycle)
system.cpu3.exec_context.thread_0.numBusyCycles 3079352.152990                       # Number of busy cycles (Cycle)
system.cpu3.exec_context.thread_0.notIdleFraction     0.999776                       # Percentage of non-idle cycles (Ratio)
system.cpu3.exec_context.thread_0.idleFraction     0.000224                       # Percentage of idle cycles (Ratio)
system.cpu3.executeStats0.numInsts                  0                       # Number of executed instructions (Count)
system.cpu3.executeStats0.numNop                    0                       # Number of nop insts executed (Count)
system.cpu3.executeStats0.numBranches               0                       # Number of branches executed (Count)
system.cpu3.executeStats0.numLoadInsts              0                       # Number of load instructions executed (Count)
system.cpu3.executeStats0.numStoreInsts         23943                       # Number of stores executed (Count)
system.cpu3.executeStats0.instRate                  0                       # Inst execution rate ((Count/Cycle))
system.cpu3.executeStats0.numFpAluAccesses         1354                       # Number of float alu accesses (Count)
system.cpu3.executeStats0.numFpRegReads          1462                       # Number of times the floating registers were read (Count)
system.cpu3.executeStats0.numFpRegWrites          785                       # Number of times the floating registers were written (Count)
system.cpu3.executeStats0.numIntAluAccesses       349490                       # Number of integer alu accesses (Count)
system.cpu3.executeStats0.numIntRegReads       321389                       # Number of times the integer registers were read (Count)
system.cpu3.executeStats0.numIntRegWrites       213715                       # Number of times the integer registers were written (Count)
system.cpu3.executeStats0.numMemRefs            23943                       # Number of memory refs (Count)
system.cpu3.executeStats0.numMiscRegReads       168604                       # Number of times the Misc registers were read (Count)
system.cpu3.executeStats0.numVecAluAccesses            0                       # Number of vector alu accesses (Count)
system.cpu3.executeStats0.numDiscardedOps            0                       # Number of ops (including micro ops) which were discarded before commit (Count)
system.cpu3.fetchStats0.numInsts               170502                       # Number of instructions fetched (thread level) (Count)
system.cpu3.fetchStats0.numOps                 350350                       # Number of ops (including micro ops) fetched (thread level) (Count)
system.cpu3.fetchStats0.fetchRate            0.055357                       # Number of inst fetches per cycle ((Count/Cycle))
system.cpu3.fetchStats0.numBranches             72223                       # Number of branches fetched (Count)
system.cpu3.fetchStats0.branchRate           0.023449                       # Number of branch fetches per cycle (Ratio)
system.cpu3.fetchStats0.numFetchSuspends            0                       # Number of times Execute suspended instruction fetching (Count)
system.cpu3.interrupts.clk_domain.clock          8000                       # Clock period in ticks (Tick)
system.cpu3.mmu.dtb.rdAccesses                  12052                       # TLB accesses on read requests (Count)
system.cpu3.mmu.dtb.wrAccesses                  11895                       # TLB accesses on write requests (Count)
system.cpu3.mmu.dtb.rdMisses                       17                       # TLB misses on read requests (Count)
system.cpu3.mmu.dtb.wrMisses                        9                       # TLB misses on write requests (Count)
system.cpu3.mmu.dtb.walker.power_state.pwrStateResidencyTicks::UNDEFINED   1540367000                       # Cumulative time (in ticks) in various power states (Tick)
system.cpu3.mmu.itb.rdAccesses                      0                       # TLB accesses on read requests (Count)
system.cpu3.mmu.itb.wrAccesses                 233992                       # TLB accesses on write requests (Count)
system.cpu3.mmu.itb.rdMisses                        0                       # TLB misses on read requests (Count)
system.cpu3.mmu.itb.wrMisses                       47                       # TLB misses on write requests (Count)
system.cpu3.mmu.itb.walker.power_state.pwrStateResidencyTicks::UNDEFINED   1540367000                       # Cumulative time (in ticks) in various power states (Tick)
system.cpu3.power_state.pwrStateResidencyTicks::ON   1540367000                       # Cumulative time (in ticks) in various power states (Tick)
system.cpu3.thread_0.numInsts                       0                       # Number of Instructions committed (Count)
system.cpu3.thread_0.numOps                         0                       # Number of Ops committed (Count)
system.cpu3.thread_0.numMemRefs                     0                       # Number of Memory References (Count)
system.cpu3.workload.numSyscalls                   15                       # Number of system calls (Count)
system.cpu4.numCycles                         3080319                       # Number of cpu cycles simulated (Cycle)
system.cpu4.cpi                             18.067129                       # CPI: cycles per instruction (core level) ((Cycle/Count))
system.cpu4.ipc                              0.055349                       # IPC: instructions per cycle (core level) ((Count/Cycle))
system.cpu4.numWorkItemsStarted                     0                       # Number of work items this cpu started (Count)
system.cpu4.numWorkItemsCompleted                   0                       # Number of work items this cpu completed (Count)
system.cpu4.commitStats0.numInsts              170493                       # Number of instructions committed (thread level) (Count)
system.cpu4.commitStats0.numOps                350329                       # Number of ops (including micro ops) committed (thread level) (Count)
system.cpu4.commitStats0.numInstsNotNOP             0                       # Number of instructions committed excluding NOPs or prefetches (Count)
[...]
system.ruby.network.routers9.port_buffers9.m_msg_count        20938                       # Number of messages passed the buffer (Count)
system.ruby.network.routers9.port_buffers9.m_buf_msgs     0.006796                       # Average number of messages in buffer ((Count/Tick))
system.ruby.network.routers9.power_state.pwrStateResidencyTicks::UNDEFINED   1540367000                       # Cumulative time (in ticks) in various power states (Tick)
system.ruby.network.routers9.throttle00.acc_link_utilization 104266.500000                       # Accumulated link utilization system.ruby.network.int_links09 (Count)
system.ruby.network.routers9.throttle00.link_utilization     3.384469                       # Average link utilization (Ratio)
system.ruby.network.routers9.throttle00.total_msg_count        41301                       # Total number of messages forwarded by this switch (Count)
system.ruby.network.routers9.throttle00.total_msg_bytes      1668264                       # Total number of bytes forwarded by this switch (Byte)
system.ruby.network.routers9.throttle00.total_data_msg_bytes      1337856                       # Total number of data bytes forwarded by this switch (Byte)
system.ruby.network.routers9.throttle00.total_msg_wait_time            0                       # Total time spend forwarding messages (Tick)
system.ruby.network.routers9.throttle00.total_stall_cy            0                       # Total time spent blocked on any output link (Cycle)
system.ruby.network.routers9.throttle00.total_bw_sat_cy        83616                       # Total time bandwidth was saturated on any output link (Cycle)
system.ruby.network.routers9.throttle00.avg_msg_wait_time            0                       # Average time a message took to be forwarded (Ratio)
system.ruby.network.routers9.throttle00.avg_bandwidth         1.01                       # Average bandwidth (GB/s) (Ratio)
system.ruby.network.routers9.throttle00.avg_useful_bandwidth         0.81                       # Average useful (only data) bandwidth (GB/s) (Ratio)
system.ruby.network.routers9.throttle00.msg_count.Response_Data::4        20904                       (Unspecified)
system.ruby.network.routers9.throttle00.msg_bytes.Response_Data::4      1505088                       (Unspecified)
system.ruby.network.routers9.throttle00.msg_count.Writeback_Control::3        20397                       (Unspecified)
system.ruby.network.routers9.throttle00.msg_bytes.Writeback_Control::3       163176                       (Unspecified)
system.ruby.network.routers9.throttle01.acc_link_utilization 104436.500000                       # Accumulated link utilization system.ruby.network.int_links10 (Count)
system.ruby.network.routers9.throttle01.link_utilization     3.389988                       # Average link utilization (Ratio)
system.ruby.network.routers9.throttle01.total_msg_count        41369                       # Total number of messages forwarded by this switch (Count)
system.ruby.network.routers9.throttle01.total_msg_bytes      1670984                       # Total number of bytes forwarded by this switch (Byte)
system.ruby.network.routers9.throttle01.total_data_msg_bytes      1340032                       # Total number of data bytes forwarded by this switch (Byte)
system.ruby.network.routers9.throttle01.total_msg_wait_time          500                       # Total time spend forwarding messages (Tick)
system.ruby.network.routers9.throttle01.total_stall_cy            0                       # Total time spent blocked on any output link (Cycle)
system.ruby.network.routers9.throttle01.total_bw_sat_cy        83752                       # Total time bandwidth was saturated on any output link (Cycle)
system.ruby.network.routers9.throttle01.avg_msg_wait_time     0.012086                       # Average time a message took to be forwarded (Ratio)
system.ruby.network.routers9.throttle01.avg_bandwidth         1.01                       # Average bandwidth (GB/s) (Ratio)
system.ruby.network.routers9.throttle01.avg_useful_bandwidth         0.81                       # Average useful (only data) bandwidth (GB/s) (Ratio)
system.ruby.network.routers9.throttle01.msg_count.Response_Data::4        20938                       (Unspecified)
system.ruby.network.routers9.throttle01.msg_bytes.Response_Data::4      1507536                       (Unspecified)
system.ruby.network.routers9.throttle01.msg_count.Writeback_Control::3        20431                       (Unspecified)
system.ruby.network.routers9.throttle01.msg_bytes.Writeback_Control::3       163448                       (Unspecified)
system.ruby.network.routers9.throttle02.acc_link_utilization 104431.500000                       # Accumulated link utilization system.ruby.network.int_links11 (Count)
system.ruby.network.routers9.throttle02.link_utilization     3.389825                       # Average link utilization (Ratio)
system.ruby.network.routers9.throttle02.total_msg_count        41367                       # Total number of messages forwarded by this switch (Count)
system.ruby.network.routers9.throttle02.total_msg_bytes      1670904                       # Total number of bytes forwarded by this switch (Byte)
system.ruby.network.routers9.throttle02.total_data_msg_bytes      1339968                       # Total number of data bytes forwarded by this switch (Byte)
system.ruby.network.routers9.throttle02.total_msg_wait_time            0                       # Total time spend forwarding messages (Tick)
system.ruby.network.routers9.throttle02.total_stall_cy            0                       # Total time spent blocked on any output link (Cycle)
system.ruby.network.routers9.throttle02.total_bw_sat_cy        83748                       # Total time bandwidth was saturated on any output link (Cycle)
system.ruby.network.routers9.throttle02.avg_msg_wait_time            0                       # Average time a message took to be forwarded (Ratio)
system.ruby.network.routers9.throttle02.avg_bandwidth         1.01                       # Average bandwidth (GB/s) (Ratio)
system.ruby.network.routers9.throttle02.avg_useful_bandwidth         0.81                       # Average useful (only data) bandwidth (GB/s) (Ratio)
system.ruby.network.routers9.throttle02.msg_count.Response_Data::4        20937                       (Unspecified)
system.ruby.network.routers9.throttle02.msg_bytes.Response_Data::4      1507464                       (Unspecified)
system.ruby.network.routers9.throttle02.msg_count.Writeback_Control::3        20430                       (Unspecified)
system.ruby.network.routers9.throttle02.msg_bytes.Writeback_Control::3       163440                       (Unspecified)
system.ruby.network.routers9.throttle03.acc_link_utilization       104502                       # Accumulated link utilization system.ruby.network.int_links12 (Count)
system.ruby.network.routers9.throttle03.link_utilization     3.392114                       # Average link utilization (Ratio)
system.ruby.network.routers9.throttle03.total_msg_count        41396                       # Total number of messages forwarded by this switch (Count)
system.ruby.network.routers9.throttle03.total_msg_bytes      1672032                       # Total number of bytes forwarded by this switch (Byte)
system.ruby.network.routers9.throttle03.total_data_msg_bytes      1340864                       # Total number of data bytes forwarded by this switch (Byte)
system.ruby.network.routers9.throttle03.total_msg_wait_time            0                       # Total time spend forwarding messages (Tick)
system.ruby.network.routers9.throttle03.total_stall_cy            0                       # Total time spent blocked on any output link (Cycle)
system.ruby.network.routers9.throttle03.total_bw_sat_cy        83804                       # Total time bandwidth was saturated on any output link (Cycle)
system.ruby.network.routers9.throttle03.avg_msg_wait_time            0                       # Average time a message took to be forwarded (Ratio)
system.ruby.network.routers9.throttle03.avg_bandwidth         1.01                       # Average bandwidth (GB/s) (Ratio)
system.ruby.network.routers9.throttle03.avg_useful_bandwidth         0.81                       # Average useful (only data) bandwidth (GB/s) (Ratio)
system.ruby.network.routers9.throttle03.msg_count.Response_Data::4        20951                       (Unspecified)
system.ruby.network.routers9.throttle03.msg_bytes.Response_Data::4      1508472                       (Unspecified)
system.ruby.network.routers9.throttle03.msg_count.Writeback_Control::3        20445                       (Unspecified)
system.ruby.network.routers9.throttle03.msg_bytes.Writeback_Control::3       163560                       (Unspecified)
system.ruby.network.routers9.throttle04.acc_link_utilization 104466.500000                       # Accumulated link utilization system.ruby.network.int_links13 (Count)
system.ruby.network.routers9.throttle04.link_utilization     3.390961                       # Average link utilization (Ratio)
system.ruby.network.routers9.throttle04.total_msg_count        41381                       # Total number of messages forwarded by this switch (Count)
system.ruby.network.routers9.throttle04.total_msg_bytes      1671464                       # Total number of bytes forwarded by this switch (Byte)
system.ruby.network.routers9.throttle04.total_data_msg_bytes      1340416                       # Total number of data bytes forwarded by this switch (Byte)
system.ruby.network.routers9.throttle04.total_msg_wait_time            0                       # Total time spend forwarding messages (Tick)
system.ruby.network.routers9.throttle04.total_stall_cy            0                       # Total time spent blocked on any output link (Cycle)
system.ruby.network.routers9.throttle04.total_bw_sat_cy        83776                       # Total time bandwidth was saturated on any output link (Cycle)
system.ruby.network.routers9.throttle04.avg_msg_wait_time            0                       # Average time a message took to be forwarded (Ratio)
system.ruby.network.routers9.throttle04.avg_bandwidth         1.01                       # Average bandwidth (GB/s) (Ratio)
system.ruby.network.routers9.throttle04.avg_useful_bandwidth         0.81                       # Average useful (only data) bandwidth (GB/s) (Ratio)
system.ruby.network.routers9.throttle04.msg_count.Response_Data::4        20944                       (Unspecified)
system.ruby.network.routers9.throttle04.msg_bytes.Response_Data::4      1507968                       (Unspecified)
system.ruby.network.routers9.throttle04.msg_count.Writeback_Control::3        20437                       (Unspecified)
system.ruby.network.routers9.throttle04.msg_bytes.Writeback_Control::3       163496                       (Unspecified)
system.ruby.network.routers9.throttle05.acc_link_utilization       104522                       # Accumulated link utilization system.ruby.network.int_links14 (Count)
system.ruby.network.routers9.throttle05.link_utilization     3.392763                       # Average link utilization (Ratio)
system.ruby.network.routers9.throttle05.total_msg_count        41404                       # Total number of messages forwarded by this switch (Count)
system.ruby.network.routers9.throttle05.total_msg_bytes      1672352                       # Total number of bytes forwarded by this switch (Byte)
system.ruby.network.routers9.throttle05.total_data_msg_bytes      1341120                       # Total number of data bytes forwarded by this switch (Byte)
system.ruby.network.routers9.throttle05.total_msg_wait_time            0                       # Total time spend forwarding messages (Tick)
system.ruby.network.routers9.throttle05.total_stall_cy            0                       # Total time spent blocked on any output link (Cycle)
system.ruby.network.routers9.throttle05.total_bw_sat_cy        83820                       # Total time bandwidth was saturated on any output link (Cycle)
system.ruby.network.routers9.throttle05.avg_msg_wait_time            0                       # Average time a message took to be forwarded (Ratio)
system.ruby.network.routers9.throttle05.avg_bandwidth         1.01                       # Average bandwidth (GB/s) (Ratio)
system.ruby.network.routers9.throttle05.avg_useful_bandwidth         0.81                       # Average useful (only data) bandwidth (GB/s) (Ratio)
system.ruby.network.routers9.throttle05.msg_count.Response_Data::4        20955                       (Unspecified)
system.ruby.network.routers9.throttle05.msg_bytes.Response_Data::4      1508760                       (Unspecified)
system.ruby.network.routers9.throttle05.msg_count.Writeback_Control::3        20449                       (Unspecified)
system.ruby.network.routers9.throttle05.msg_bytes.Writeback_Control::3       163592                       (Unspecified)
system.ruby.network.routers9.throttle06.acc_link_utilization 104512.500000                       # Accumulated link utilization system.ruby.network.int_links15 (Count)
system.ruby.network.routers9.throttle06.link_utilization     3.392455                       # Average link utilization (Ratio)
system.ruby.network.routers9.throttle06.total_msg_count        41401                       # Total number of messages forwarded by this switch (Count)
system.ruby.network.routers9.throttle06.total_msg_bytes      1672200                       # Total number of bytes forwarded by this switch (Byte)
system.ruby.network.routers9.throttle06.total_data_msg_bytes      1340992                       # Total number of data bytes forwarded by this switch (Byte)
system.ruby.network.routers9.throttle06.total_msg_wait_time          500                       # Total time spend forwarding messages (Tick)
system.ruby.network.routers9.throttle06.total_stall_cy            0                       # Total time spent blocked on any output link (Cycle)
system.ruby.network.routers9.throttle06.total_bw_sat_cy        83812                       # Total time bandwidth was saturated on any output link (Cycle)
system.ruby.network.routers9.throttle06.avg_msg_wait_time     0.012077                       # Average time a message took to be forwarded (Ratio)
system.ruby.network.routers9.throttle06.avg_bandwidth         1.01                       # Average bandwidth (GB/s) (Ratio)
system.ruby.network.routers9.throttle06.avg_useful_bandwidth         0.81                       # Average useful (only data) bandwidth (GB/s) (Ratio)
system.ruby.network.routers9.throttle06.msg_count.Response_Data::4        20953                       (Unspecified)
system.ruby.network.routers9.throttle06.msg_bytes.Response_Data::4      1508616                       (Unspecified)
system.ruby.network.routers9.throttle06.msg_count.Writeback_Control::3        20448                       (Unspecified)
system.ruby.network.routers9.throttle06.msg_bytes.Writeback_Control::3       163584                       (Unspecified)
system.ruby.network.routers9.throttle07.acc_link_utilization 104512.500000                       # Accumulated link utilization system.ruby.network.int_links16 (Count)
system.ruby.network.routers9.throttle07.link_utilization     3.392455                       # Average link utilization (Ratio)
system.ruby.network.routers9.throttle07.total_msg_count        41401                       # Total number of messages forwarded by this switch (Count)
system.ruby.network.routers9.throttle07.total_msg_bytes      1672200                       # Total number of bytes forwarded by this switch (Byte)
system.ruby.network.routers9.throttle07.total_data_msg_bytes      1340992                       # Total number of data bytes forwarded by this switch (Byte)
system.ruby.network.routers9.throttle07.total_msg_wait_time            0                       # Total time spend forwarding messages (Tick)
system.ruby.network.routers9.throttle07.total_stall_cy            0                       # Total time spent blocked on any output link (Cycle)
system.ruby.network.routers9.throttle07.total_bw_sat_cy        83812                       # Total time bandwidth was saturated on any output link (Cycle)
system.ruby.network.routers9.throttle07.avg_msg_wait_time            0                       # Average time a message took to be forwarded (Ratio)
system.ruby.network.routers9.throttle07.avg_bandwidth         1.01                       # Average bandwidth (GB/s) (Ratio)
system.ruby.network.routers9.throttle07.avg_useful_bandwidth         0.81                       # Average useful (only data) bandwidth (GB/s) (Ratio)
system.ruby.network.routers9.throttle07.msg_count.Response_Data::4        20953                       (Unspecified)
system.ruby.network.routers9.throttle07.msg_bytes.Response_Data::4      1508616                       (Unspecified)
system.ruby.network.routers9.throttle07.msg_count.Writeback_Control::3        20448                       (Unspecified)
system.ruby.network.routers9.throttle07.msg_bytes.Writeback_Control::3       163584                       (Unspecified)
system.ruby.network.routers9.throttle08.acc_link_utilization        94356                       # Accumulated link utilization system.ruby.network.int_links17 (Count)
system.ruby.network.routers9.throttle08.link_utilization     3.062777                       # Average link utilization (Ratio)
system.ruby.network.routers9.throttle08.total_msg_count       169888                       # Total number of messages forwarded by this switch (Count)
system.ruby.network.routers9.throttle08.total_msg_bytes      1509696                       # Total number of bytes forwarded by this switch (Byte)
system.ruby.network.routers9.throttle08.total_data_msg_bytes       150592                       # Total number of data bytes forwarded by this switch (Byte)
system.ruby.network.routers9.throttle08.total_msg_wait_time      1119500                       # Total time spend forwarding messages (Tick)
system.ruby.network.routers9.throttle08.total_stall_cy            0                       # Total time spent blocked on any output link (Cycle)
system.ruby.network.routers9.throttle08.total_bw_sat_cy         9731                       # Total time bandwidth was saturated on any output link (Cycle)
system.ruby.network.routers9.throttle08.avg_msg_wait_time     6.589636                       # Average time a message took to be forwarded (Ratio)
system.ruby.network.routers9.throttle08.avg_bandwidth         0.91                       # Average bandwidth (GB/s) (Ratio)
system.ruby.network.routers9.throttle08.avg_useful_bandwidth         0.09                       # Average useful (only data) bandwidth (GB/s) (Ratio)
system.ruby.network.routers9.throttle08.msg_count.Control::2       167535                       (Unspecified)
system.ruby.network.routers9.throttle08.msg_bytes.Control::2      1340280                       (Unspecified)
system.ruby.network.routers9.throttle08.msg_count.Data::2         2353                       (Unspecified)
system.ruby.network.routers9.throttle08.msg_bytes.Data::2       169416                       (Unspecified)
system.ruby.power_state.pwrStateResidencyTicks::UNDEFINED   1540367000                       # Cumulative time (in ticks) in various power states (Tick)
system.sys_port_proxy.power_state.pwrStateResidencyTicks::UNDEFINED   1540367000                       # Cumulative time (in ticks) in various power states (Tick)
system.voltage_domain.voltage                       1                       # Voltage in Volts (Volt)
system.workload.inst.arm                            0                       # number of arm instructions executed (Count)
system.workload.inst.quiesce                        0                       # number of quiesce instructions executed (Count)

---------- End Simulation Statistics   ----------
