
---------- Begin Simulation Statistics ----------
simSeconds                                   0.000315                       # Number of seconds simulated (Second)
simTicks                                    314829500                       # Number of ticks simulated (Tick)
finalTick                                   314829500                       # Number of ticks from beginning of simulation (restored from checkpoints and never reset) (Tick)
simFreq                                  1000000000000                       # The number of ticks per simulated second ((Tick/Second))
hostSeconds                                      0.30                       # Real time elapsed on the host (Second)
hostTickRate                               1036847791                       # The number of ticks simulated per host second (ticks/s) ((Tick/Second))
hostMemory                                    2592832                       # Number of bytes of host memory used (Byte)
simInsts                                       171453                       # Number of instructions simulated (Count)
simOps                                         351662                       # Number of ops (including micro ops) simulated (Count)
hostInstRate                                   564516                       # Simulator instruction rate (inst/s) ((Count/Second))
hostOpRate                                    1157849                       # Simulator op (including micro ops) rate (op/s) ((Count/Second))
system.clk_domain.clock                          1000                       # Clock period in ticks (Tick)
system.cpu.numCycles                           629659                       # Number of cpu cycles simulated (Cycle)
system.cpu.cpi                               3.672123                       # CPI: cycles per instruction (core level) ((Cycle/Count))
system.cpu.ipc                               0.272322                       # IPC: instructions per cycle (core level) ((Count/Cycle))
system.cpu.numWorkItemsStarted                      0                       # Number of work items this cpu started (Count)
system.cpu.numWorkItemsCompleted                    0                       # Number of work items this cpu completed (Count)
system.cpu.commitStats0.numInsts               171470                       # Number of instructions committed (thread level) (Count)
system.cpu.commitStats0.numOps                 351680                       # Number of ops (including micro ops) committed (thread level) (Count)
system.cpu.commitStats0.numInstsNotNOP              0                       # Number of instructions committed excluding NOPs or prefetches (Count)
system.cpu.commitStats0.numOpsNotNOP                0                       # Number of Ops (including micro ops) Simulated (Count)
system.cpu.commitStats0.cpi                  3.672123                       # CPI: cycles per instruction (thread level) ((Cycle/Count))
system.cpu.commitStats0.ipc                  0.272322                       # IPC: instructions per cycle (thread level) ((Count/Cycle))
system.cpu.commitStats0.numMemRefs                  0                       # Number of memory references committed (Count)
system.cpu.commitStats0.numFpInsts               1354                       # Number of float instructions (Count)
system.cpu.commitStats0.numIntInsts            350821                       # Number of integer instructions (Count)
system.cpu.commitStats0.numLoadInsts            11885                       # Number of load instructions (Count)
system.cpu.commitStats0.numStoreInsts           12554                       # Number of store instructions (Count)
system.cpu.commitStats0.numVecInsts                 0                       # Number of vector instructions (Count)
system.cpu.commitStats0.committedInstType::No_OpClass          207      0.06%      0.06% # Class of committed instruction. (Count)
system.cpu.commitStats0.committedInstType::IntAlu       326448     92.83%     92.88% # Class of committed instruction. (Count)
system.cpu.commitStats0.committedInstType::IntMult           12      0.00%     92.89% # Class of committed instruction. (Count)
system.cpu.commitStats0.committedInstType::IntDiv           21      0.01%     92.89% # Class of committed instruction. (Count)
system.cpu.commitStats0.committedInstType::FloatAdd          172      0.05%     92.94% # Class of committed instruction. (Count)
system.cpu.commitStats0.committedInstType::FloatCmp            0      0.00%     92.94% # Class of committed instruction. (Count)
system.cpu.commitStats0.committedInstType::FloatCvt            0      0.00%     92.94% # Class of committed instruction. (Count)
system.cpu.commitStats0.committedInstType::FloatMult            0      0.00%     92.94% # Class of committed instruction. (Count)
system.cpu.commitStats0.committedInstType::FloatMultAcc            0      0.00%     92.94% # Class of committed instruction. (Count)
system.cpu.commitStats0.committedInstType::FloatDiv            0      0.00%     92.94% # Class of committed instruction. (Count)
system.cpu.commitStats0.committedInstType::FloatMisc            0      0.00%     92.94% # Class of committed instruction. (Count)
system.cpu.commitStats0.committedInstType::FloatSqrt            0      0.00%     92.94% # Class of committed instruction. (Count)
system.cpu.commitStats0.committedInstType::SimdAdd            8      0.00%     92.94% # Class of committed instruction. (Count)
system.cpu.commitStats0.committedInstType::SimdAddAcc            0      0.00%     92.94% # Class of committed instruction. (Count)
system.cpu.commitStats0.committedInstType::SimdAlu           96      0.03%     92.97% # Class of committed instruction. (Count)
system.cpu.commitStats0.committedInstType::SimdCmp            0      0.00%     92.97% # Class of committed instruction. (Count)
system.cpu.commitStats0.committedInstType::SimdCvt           48      0.01%     92.99% # Class of committed instruction. (Count)
system.cpu.commitStats0.committedInstType::SimdMisc          229      0.07%     93.05% # Class of committed instruction. (Count)
system.cpu.commitStats0.committedInstType::SimdMult            0      0.00%     93.05% # Class of committed instruction. (Count)
system.cpu.commitStats0.committedInstType::SimdMultAcc            0      0.00%     93.05% # Class of committed instruction. (Count)
system.cpu.commitStats0.committedInstType::SimdMatMultAcc            0      0.00%     93.05% # Class of committed instruction. (Count)
system.cpu.commitStats0.committedInstType::SimdShift            0      0.00%     93.05% # Class of committed instruction. (Count)
system.cpu.commitStats0.committedInstType::SimdShiftAcc            0      0.00%     93.05% # Class of committed instruction. (Count)
system.cpu.commitStats0.committedInstType::SimdDiv            0      0.00%     93.05% # Class of committed instruction. (Count)
system.cpu.commitStats0.committedInstType::SimdSqrt            0      0.00%     93.05% # Class of committed instruction. (Count)
system.cpu.commitStats0.committedInstType::SimdFloatAdd            0      0.00%     93.05% # Class of committed instruction. (Count)
system.cpu.commitStats0.committedInstType::SimdFloatAlu            0      0.00%     93.05% # Class of committed instruction. (Count)
system.cpu.commitStats0.committedInstType::SimdFloatCmp            0      0.00%     93.05% # Class of committed instruction. (Count)
system.cpu.commitStats0.committedInstType::SimdFloatCvt            0      0.00%     93.05% # Class of committed instruction. (Count)
system.cpu.commitStats0.committedInstType::SimdFloatDiv            0      0.00%     93.05% # Class of committed instruction. (Count)
system.cpu.commitStats0.committedInstType::SimdFloatMisc            0      0.00%     93.05% # Class of committed instruction. (Count)
system.cpu.commitStats0.committedInstType::SimdFloatMult            0      0.00%     93.05% # Class of committed instruction. (Count)
system.cpu.commitStats0.committedInstType::SimdFloatMultAcc            0      0.00%     93.05% # Class of committed instruction. (Count)
system.cpu.commitStats0.committedInstType::SimdFloatMatMultAcc            0      0.00%     93.05% # Class of committed instruction. (Count)
system.cpu.commitStats0.committedInstType::SimdFloatSqrt            0      0.00%     93.05% # Class of committed instruction. (Count)
system.cpu.commitStats0.committedInstType::SimdReduceAdd            0      0.00%     93.05% # Class of committed instruction. (Count)
system.cpu.commitStats0.committedInstType::SimdReduceAlu            0      0.00%     93.05% # Class of committed instruction. (Count)
system.cpu.commitStats0.committedInstType::SimdReduceCmp            0      0.00%     93.05% # Class of committed instruction. (Count)
system.cpu.commitStats0.committedInstType::SimdFloatReduceAdd            0      0.00%     93.05% # Class of committed instruction. (Count)
system.cpu.commitStats0.committedInstType::SimdFloatReduceCmp            0      0.00%     93.05% # Class of committed instruction. (Count)
system.cpu.commitStats0.committedInstType::SimdAes            0      0.00%     93.05% # Class of committed instruction. (Count)
system.cpu.commitStats0.committedInstType::SimdAesMix            0      0.00%     93.05% # Class of committed instruction. (Count)
system.cpu.commitStats0.committedInstType::SimdSha1Hash            0      0.00%     93.05% # Class of committed instruction. (Count)
system.cpu.commitStats0.committedInstType::SimdSha1Hash2            0      0.00%     93.05% # Class of committed instruction. (Count)
system.cpu.commitStats0.committedInstType::SimdSha256Hash            0      0.00%     93.05% # Class of committed instruction. (Count)
system.cpu.commitStats0.committedInstType::SimdSha256Hash2            0      0.00%     93.05% # Class of committed instruction. (Count)
system.cpu.commitStats0.committedInstType::SimdShaSigma2            0      0.00%     93.05% # Class of committed instruction. (Count)
system.cpu.commitStats0.committedInstType::SimdShaSigma3            0      0.00%     93.05% # Class of committed instruction. (Count)
system.cpu.commitStats0.committedInstType::SimdPredAlu            0      0.00%     93.05% # Class of committed instruction. (Count)
system.cpu.commitStats0.committedInstType::Matrix            0      0.00%     93.05% # Class of committed instruction. (Count)
system.cpu.commitStats0.committedInstType::MatrixMov            0      0.00%     93.05% # Class of committed instruction. (Count)
system.cpu.commitStats0.committedInstType::MatrixOP            0      0.00%     93.05% # Class of committed instruction. (Count)
system.cpu.commitStats0.committedInstType::MemRead        11764      3.35%     96.40% # Class of committed instruction. (Count)
system.cpu.commitStats0.committedInstType::MemWrite        12031      3.42%     99.82% # Class of committed instruction. (Count)
system.cpu.commitStats0.committedInstType::FloatMemRead          121      0.03%     99.85% # Class of committed instruction. (Count)
system.cpu.commitStats0.committedInstType::FloatMemWrite          523      0.15%    100.00% # Class of committed instruction. (Count)
system.cpu.commitStats0.committedInstType::IprAccess            0      0.00%    100.00% # Class of committed instruction. (Count)
system.cpu.commitStats0.committedInstType::InstPrefetch            0      0.00%    100.00% # Class of committed instruction. (Count)
system.cpu.commitStats0.committedInstType::SimdUnitStrideLoad            0      0.00%    100.00% # Class of committed instruction. (Count)
system.cpu.commitStats0.committedInstType::SimdUnitStrideStore            0      0.00%    100.00% # Class of committed instruction. (Count)
system.cpu.commitStats0.committedInstType::SimdUnitStrideMaskLoad            0      0.00%    100.00% # Class of committed instruction. (Count)
system.cpu.commitStats0.committedInstType::SimdUnitStrideMaskStore            0      0.00%    100.00% # Class of committed instruction. (Count)
system.cpu.commitStats0.committedInstType::SimdStridedLoad            0      0.00%    100.00% # Class of committed instruction. (Count)
system.cpu.commitStats0.committedInstType::SimdStridedStore            0      0.00%    100.00% # Class of committed instruction. (Count)
system.cpu.commitStats0.committedInstType::SimdIndexedLoad            0      0.00%    100.00% # Class of committed instruction. (Count)
system.cpu.commitStats0.committedInstType::SimdIndexedStore            0      0.00%    100.00% # Class of committed instruction. (Count)
system.cpu.commitStats0.committedInstType::SimdWholeRegisterLoad            0      0.00%    100.00% # Class of committed instruction. (Count)
system.cpu.commitStats0.committedInstType::SimdWholeRegisterStore            0      0.00%    100.00% # Class of committed instruction. (Count)
system.cpu.commitStats0.committedInstType::SimdUnitStrideFaultOnlyFirstLoad            0      0.00%    100.00% # Class of committed instruction. (Count)
system.cpu.commitStats0.committedInstType::SimdUnitStrideSegmentedLoad            0      0.00%    100.00% # Class of committed instruction. (Count)
system.cpu.commitStats0.committedInstType::SimdUnitStrideSegmentedStore            0      0.00%    100.00% # Class of committed instruction. (Count)
system.cpu.commitStats0.committedInstType::SimdUnitStrideSegmentedFaultOnlyFirstLoad            0      0.00%    100.00% # Class of committed instruction. (Count)
system.cpu.commitStats0.committedInstType::SimdStrideSegmentedLoad            0      0.00%    100.00% # Class of committed instruction. (Count)
system.cpu.commitStats0.committedInstType::SimdStrideSegmentedStore            0      0.00%    100.00% # Class of committed instruction. (Count)
system.cpu.commitStats0.committedInstType::SimdExt            0      0.00%    100.00% # Class of committed instruction. (Count)
system.cpu.commitStats0.committedInstType::SimdFloatExt            0      0.00%    100.00% # Class of committed instruction. (Count)
system.cpu.commitStats0.committedInstType::SimdConfig            0      0.00%    100.00% # Class of committed instruction. (Count)
system.cpu.commitStats0.committedInstType::total       351680                       # Class of committed instruction. (Count)
system.cpu.commitStats0.committedControl::IsControl        72132                       # Class of control type instructions committed (Count)
system.cpu.commitStats0.committedControl::IsDirectControl        71884                       # Class of control type instructions committed (Count)
system.cpu.commitStats0.committedControl::IsIndirectControl          248                       # Class of control type instructions committed (Count)
system.cpu.commitStats0.committedControl::IsCondControl        51595                       # Class of control type instructions committed (Count)
system.cpu.commitStats0.committedControl::IsUncondControl        20537                       # Class of control type instructions committed (Count)
system.cpu.commitStats0.committedControl::IsCall          180                       # Class of control type instructions committed (Count)
system.cpu.commitStats0.committedControl::IsReturn          175                       # Class of control type instructions committed (Count)
system.cpu.exec_context.thread_0.numMatAluAccesses            0                       # Number of matrix alu accesses (Count)
system.cpu.exec_context.thread_0.numCallsReturns          355                       # Number of times a function call or return occured (Count)
system.cpu.exec_context.thread_0.numMatInsts            0                       # Number of matrix instructions (Count)
system.cpu.exec_context.thread_0.numIdleCycles     0.002000                       # Number of idle cycles (Cycle)
system.cpu.exec_context.thread_0.numBusyCycles 629658.998000                       # Number of busy cycles (Cycle)
system.cpu.exec_context.thread_0.notIdleFraction     1.000000                       # Percentage of non-idle cycles (Ratio)
system.cpu.exec_context.thread_0.idleFraction     0.000000                       # Percentage of idle cycles (Ratio)
system.cpu.executeStats0.numInsts                   0                       # Number of executed instructions (Count)
system.cpu.executeStats0.numNop                     0                       # Number of nop insts executed (Count)
system.cpu.executeStats0.numBranches                0                       # Number of branches executed (Count)
system.cpu.executeStats0.numLoadInsts               0                       # Number of load instructions executed (Count)
system.cpu.executeStats0.numStoreInsts          24439                       # Number of stores executed (Count)
system.cpu.executeStats0.instRate                   0                       # Inst execution rate ((Count/Cycle))
system.cpu.executeStats0.numFpAluAccesses         1354                       # Number of float alu accesses (Count)
system.cpu.executeStats0.numFpRegReads           1462                       # Number of times the floating registers were read (Count)
system.cpu.executeStats0.numFpRegWrites           785                       # Number of times the floating registers were written (Count)
system.cpu.executeStats0.numIntAluAccesses       350821                       # Number of integer alu accesses (Count)
system.cpu.executeStats0.numIntRegReads        323460                       # Number of times the integer registers were read (Count)
system.cpu.executeStats0.numIntRegWrites       214569                       # Number of times the integer registers were written (Count)
system.cpu.executeStats0.numMemRefs             24439                       # Number of memory refs (Count)
system.cpu.executeStats0.numMiscRegReads       168918                       # Number of times the Misc registers were read (Count)
system.cpu.executeStats0.numVecAluAccesses            0                       # Number of vector alu accesses (Count)
system.cpu.executeStats0.numDiscardedOps            0                       # Number of ops (including micro ops) which were discarded before commit (Count)
system.cpu.fetchStats0.numInsts                171470                       # Number of instructions fetched (thread level) (Count)
system.cpu.fetchStats0.numOps                  351680                       # Number of ops (including micro ops) fetched (thread level) (Count)
system.cpu.fetchStats0.fetchRate             0.272322                       # Number of inst fetches per cycle ((Count/Cycle))
system.cpu.fetchStats0.numBranches              72132                       # Number of branches fetched (Count)
system.cpu.fetchStats0.branchRate            0.114557                       # Number of branch fetches per cycle (Ratio)
system.cpu.fetchStats0.numFetchSuspends             0                       # Number of times Execute suspended instruction fetching (Count)
system.cpu.interrupts.clk_domain.clock           8000                       # Clock period in ticks (Tick)
system.cpu.mmu.dtb.rdAccesses                   11889                       # TLB accesses on read requests (Count)
system.cpu.mmu.dtb.wrAccesses                   12554                       # TLB accesses on write requests (Count)
system.cpu.mmu.dtb.rdMisses                        15                       # TLB misses on read requests (Count)
system.cpu.mmu.dtb.wrMisses                        11                       # TLB misses on write requests (Count)
system.cpu.mmu.dtb.walker.power_state.pwrStateResidencyTicks::UNDEFINED    314829500                       # Cumulative time (in ticks) in various power states (Tick)
system.cpu.mmu.itb.rdAccesses                       0                       # TLB accesses on read requests (Count)
system.cpu.mmu.itb.wrAccesses                  235849                       # TLB accesses on write requests (Count)
system.cpu.mmu.itb.rdMisses                         0                       # TLB misses on read requests (Count)
system.cpu.mmu.itb.wrMisses                        47                       # TLB misses on write requests (Count)
system.cpu.mmu.itb.walker.power_state.pwrStateResidencyTicks::UNDEFINED    314829500                       # Cumulative time (in ticks) in various power states (Tick)
system.cpu.power_state.pwrStateResidencyTicks::ON    314829500                       # Cumulative time (in ticks) in various power states (Tick)
system.cpu.thread_0.numInsts                        0                       # Number of Instructions committed (Count)
system.cpu.thread_0.numOps                          0                       # Number of Ops committed (Count)
system.cpu.thread_0.numMemRefs                      0                       # Number of Memory References (Count)
system.cpu.workload.numSyscalls                    15                       # Number of system calls (Count)
system.cpu_clk_domain.clock                       500                       # Clock period in ticks (Tick)
system.cpu_voltage_domain.voltage                   1                       # Voltage in Volts (Volt)
system.mem_ctrls.avgPriority_ruby.dir_cntrl0::samples       887.00                       # Average QoS priority value for accepted requests (Count)
system.mem_ctrls.priorityMinLatency      0.000000018750                       # per QoS priority minimum request to response latency (Second)
system.mem_ctrls.priorityMaxLatency      0.000000555500                       # per QoS priority maximum request to response latency (Second)
system.mem_ctrls.numReadWriteTurnArounds            0                       # Number of turnarounds from READ to WRITE (Count)
system.mem_ctrls.numWriteReadTurnArounds            0                       # Number of turnarounds from WRITE to READ (Count)
system.mem_ctrls.numStayReadState                1853                       # Number of times bus staying in READ state (Count)
system.mem_ctrls.numStayWriteState                  0                       # Number of times bus staying in WRITE state (Count)
system.mem_ctrls.readReqs                         887                       # Number of read requests accepted (Count)
system.mem_ctrls.writeReqs                          0                       # Number of write requests accepted (Count)
system.mem_ctrls.readBursts                       887                       # Number of controller read bursts, including those serviced by the write queue (Count)
system.mem_ctrls.writeBursts                        0                       # Number of controller write bursts, including those merged in the write queue (Count)
system.mem_ctrls.servicedByWrQ                      0                       # Number of controller read bursts serviced by the write queue (Count)
system.mem_ctrls.mergedWrBursts                     0                       # Number of controller write bursts merged with an existing one (Count)
system.mem_ctrls.neitherReadNorWriteReqs            0                       # Number of requests that are neither read nor write (Count)
system.mem_ctrls.avgRdQLen                       1.00                       # Average read queue length when enqueuing ((Count/Tick))
system.mem_ctrls.avgWrQLen                       0.00                       # Average write queue length when enqueuing ((Count/Tick))
system.mem_ctrls.numRdRetry                         0                       # Number of times read queue was full causing retry (Count)
system.mem_ctrls.numWrRetry                         0                       # Number of times write queue was full causing retry (Count)
system.mem_ctrls.readPktSize::0                     0                       # Read request sizes (log2) (Count)
system.mem_ctrls.readPktSize::1                     0                       # Read request sizes (log2) (Count)
system.mem_ctrls.readPktSize::2                     0                       # Read request sizes (log2) (Count)
system.mem_ctrls.readPktSize::3                     0                       # Read request sizes (log2) (Count)
system.mem_ctrls.readPktSize::4                     0                       # Read request sizes (log2) (Count)
system.mem_ctrls.readPktSize::5                     0                       # Read request sizes (log2) (Count)
system.mem_ctrls.readPktSize::6                   887                       # Read request sizes (log2) (Count)
system.mem_ctrls.writePktSize::0                    0                       # Write request sizes (log2) (Count)
system.mem_ctrls.writePktSize::1                    0                       # Write request sizes (log2) (Count)
system.mem_ctrls.writePktSize::2                    0                       # Write request sizes (log2) (Count)
system.mem_ctrls.writePktSize::3                    0                       # Write request sizes (log2) (Count)
system.mem_ctrls.writePktSize::4                    0                       # Write request sizes (log2) (Count)
system.mem_ctrls.writePktSize::5                    0                       # Write request sizes (log2) (Count)
system.mem_ctrls.writePktSize::6                    0                       # Write request sizes (log2) (Count)
system.mem_ctrls.rdQLenPdf::0                     886                       # What read queue length does an incoming req see (Count)
system.mem_ctrls.rdQLenPdf::1                       1                       # What read queue length does an incoming req see (Count)
system.mem_ctrls.rdQLenPdf::2                       0                       # What read queue length does an incoming req see (Count)
system.mem_ctrls.rdQLenPdf::3                       0                       # What read queue length does an incoming req see (Count)
system.mem_ctrls.rdQLenPdf::4                       0                       # What read queue length does an incoming req see (Count)
system.mem_ctrls.rdQLenPdf::5                       0                       # What read queue length does an incoming req see (Count)
system.mem_ctrls.rdQLenPdf::6                       0                       # What read queue length does an incoming req see (Count)
system.mem_ctrls.rdQLenPdf::7                       0                       # What read queue length does an incoming req see (Count)
system.mem_ctrls.rdQLenPdf::8                       0                       # What read queue length does an incoming req see (Count)
system.mem_ctrls.rdQLenPdf::9                       0                       # What read queue length does an incoming req see (Count)
system.mem_ctrls.rdQLenPdf::10                      0                       # What read queue length does an incoming req see (Count)
system.mem_ctrls.rdQLenPdf::11                      0                       # What read queue length does an incoming req see (Count)
system.mem_ctrls.rdQLenPdf::12                      0                       # What read queue length does an incoming req see (Count)
system.mem_ctrls.rdQLenPdf::13                      0                       # What read queue length does an incoming req see (Count)
system.mem_ctrls.rdQLenPdf::14                      0                       # What read queue length does an incoming req see (Count)
system.mem_ctrls.rdQLenPdf::15                      0                       # What read queue length does an incoming req see (Count)
system.mem_ctrls.rdQLenPdf::16                      0                       # What read queue length does an incoming req see (Count)
system.mem_ctrls.rdQLenPdf::17                      0                       # What read queue length does an incoming req see (Count)
system.mem_ctrls.rdQLenPdf::18                      0                       # What read queue length does an incoming req see (Count)
system.mem_ctrls.rdQLenPdf::19                      0                       # What read queue length does an incoming req see (Count)
system.mem_ctrls.rdQLenPdf::20                      0                       # What read queue length does an incoming req see (Count)
system.mem_ctrls.rdQLenPdf::21                      0                       # What read queue length does an incoming req see (Count)
system.mem_ctrls.rdQLenPdf::22                      0                       # What read queue length does an incoming req see (Count)
system.mem_ctrls.rdQLenPdf::23                      0                       # What read queue length does an incoming req see (Count)
system.mem_ctrls.rdQLenPdf::24                      0                       # What read queue length does an incoming req see (Count)
system.mem_ctrls.rdQLenPdf::25                      0                       # What read queue length does an incoming req see (Count)
system.mem_ctrls.rdQLenPdf::26                      0                       # What read queue length does an incoming req see (Count)
system.mem_ctrls.rdQLenPdf::27                      0                       # What read queue length does an incoming req see (Count)
system.mem_ctrls.rdQLenPdf::28                      0                       # What read queue length does an incoming req see (Count)
system.mem_ctrls.rdQLenPdf::29                      0                       # What read queue length does an incoming req see (Count)
system.mem_ctrls.rdQLenPdf::30                      0                       # What read queue length does an incoming req see (Count)
system.mem_ctrls.rdQLenPdf::31                      0                       # What read queue length does an incoming req see (Count)
system.mem_ctrls.wrQLenPdf::0                       0                       # What write queue length does an incoming req see (Count)
system.mem_ctrls.wrQLenPdf::1                       0                       # What write queue length does an incoming req see (Count)
system.mem_ctrls.wrQLenPdf::2                       0                       # What write queue length does an incoming req see (Count)
system.mem_ctrls.wrQLenPdf::3                       0                       # What write queue length does an incoming req see (Count)
system.mem_ctrls.wrQLenPdf::4                       0                       # What write queue length does an incoming req see (Count)
system.mem_ctrls.wrQLenPdf::5                       0                       # What write queue length does an incoming req see (Count)
system.mem_ctrls.wrQLenPdf::6                       0                       # What write queue length does an incoming req see (Count)
system.mem_ctrls.wrQLenPdf::7                       0                       # What write queue length does an incoming req see (Count)
system.mem_ctrls.wrQLenPdf::8                       0                       # What write queue length does an incoming req see (Count)
system.mem_ctrls.wrQLenPdf::9                       0                       # What write queue length does an incoming req see (Count)
system.mem_ctrls.wrQLenPdf::10                      0                       # What write queue length does an incoming req see (Count)
system.mem_ctrls.wrQLenPdf::11                      0                       # What write queue length does an incoming req see (Count)
system.mem_ctrls.wrQLenPdf::12                      0                       # What write queue length does an incoming req see (Count)
system.mem_ctrls.wrQLenPdf::13                      0                       # What write queue length does an incoming req see (Count)
system.mem_ctrls.wrQLenPdf::14                      0                       # What write queue length does an incoming req see (Count)
system.mem_ctrls.wrQLenPdf::15                      0                       # What write queue length does an incoming req see (Count)
system.mem_ctrls.wrQLenPdf::16                      0                       # What write queue length does an incoming req see (Count)
system.mem_ctrls.wrQLenPdf::17                      0                       # What write queue length does an incoming req see (Count)
system.mem_ctrls.wrQLenPdf::18                      0                       # What write queue length does an incoming req see (Count)
system.mem_ctrls.wrQLenPdf::19                      0                       # What write queue length does an incoming req see (Count)
system.mem_ctrls.wrQLenPdf::20                      0                       # What write queue length does an incoming req see (Count)
system.mem_ctrls.wrQLenPdf::21                      0                       # What write queue length does an incoming req see (Count)
system.mem_ctrls.wrQLenPdf::22                      0                       # What write queue length does an incoming req see (Count)
system.mem_ctrls.wrQLenPdf::23                      0                       # What write queue length does an incoming req see (Count)
system.mem_ctrls.wrQLenPdf::24                      0                       # What write queue length does an incoming req see (Count)
system.mem_ctrls.wrQLenPdf::25                      0                       # What write queue length does an incoming req see (Count)
system.mem_ctrls.wrQLenPdf::26                      0                       # What write queue length does an incoming req see (Count)
system.mem_ctrls.wrQLenPdf::27                      0                       # What write queue length does an incoming req see (Count)
system.mem_ctrls.wrQLenPdf::28                      0                       # What write queue length does an incoming req see (Count)
system.mem_ctrls.wrQLenPdf::29                      0                       # What write queue length does an incoming req see (Count)
system.mem_ctrls.wrQLenPdf::30                      0                       # What write queue length does an incoming req see (Count)
system.mem_ctrls.wrQLenPdf::31                      0                       # What write queue length does an incoming req see (Count)
system.mem_ctrls.wrQLenPdf::32                      0                       # What write queue length does an incoming req see (Count)
system.mem_ctrls.wrQLenPdf::33                      0                       # What write queue length does an incoming req see (Count)
system.mem_ctrls.wrQLenPdf::34                      0                       # What write queue length does an incoming req see (Count)
system.mem_ctrls.wrQLenPdf::35                      0                       # What write queue length does an incoming req see (Count)
system.mem_ctrls.wrQLenPdf::36                      0                       # What write queue length does an incoming req see (Count)
system.mem_ctrls.wrQLenPdf::37                      0                       # What write queue length does an incoming req see (Count)
system.mem_ctrls.wrQLenPdf::38                      0                       # What write queue length does an incoming req see (Count)
system.mem_ctrls.wrQLenPdf::39                      0                       # What write queue length does an incoming req see (Count)
system.mem_ctrls.wrQLenPdf::40                      0                       # What write queue length does an incoming req see (Count)
system.mem_ctrls.wrQLenPdf::41                      0                       # What write queue length does an incoming req see (Count)
system.mem_ctrls.wrQLenPdf::42                      0                       # What write queue length does an incoming req see (Count)
system.mem_ctrls.wrQLenPdf::43                      0                       # What write queue length does an incoming req see (Count)
system.mem_ctrls.wrQLenPdf::44                      0                       # What write queue length does an incoming req see (Count)
system.mem_ctrls.wrQLenPdf::45                      0                       # What write queue length does an incoming req see (Count)
system.mem_ctrls.wrQLenPdf::46                      0                       # What write queue length does an incoming req see (Count)
system.mem_ctrls.wrQLenPdf::47                      0                       # What write queue length does an incoming req see (Count)
system.mem_ctrls.wrQLenPdf::48                      0                       # What write queue length does an incoming req see (Count)
system.mem_ctrls.wrQLenPdf::49                      0                       # What write queue length does an incoming req see (Count)
system.mem_ctrls.wrQLenPdf::50                      0                       # What write queue length does an incoming req see (Count)
system.mem_ctrls.wrQLenPdf::51                      0                       # What write queue length does an incoming req see (Count)
system.mem_ctrls.wrQLenPdf::52                      0                       # What write queue length does an incoming req see (Count)
system.mem_ctrls.wrQLenPdf::53                      0                       # What write queue length does an incoming req see (Count)
system.mem_ctrls.wrQLenPdf::54                      0                       # What write queue length does an incoming req see (Count)
system.mem_ctrls.wrQLenPdf::55                      0                       # What write queue length does an incoming req see (Count)
system.mem_ctrls.wrQLenPdf::56                      0                       # What write queue length does an incoming req see (Count)
system.mem_ctrls.wrQLenPdf::57                      0                       # What write queue length does an incoming req see (Count)
system.mem_ctrls.wrQLenPdf::58                      0                       # What write queue length does an incoming req see (Count)
system.mem_ctrls.wrQLenPdf::59                      0                       # What write queue length does an incoming req see (Count)
system.mem_ctrls.wrQLenPdf::60                      0                       # What write queue length does an incoming req see (Count)
system.mem_ctrls.wrQLenPdf::61                      0                       # What write queue length does an incoming req see (Count)
system.mem_ctrls.wrQLenPdf::62                      0                       # What write queue length does an incoming req see (Count)
system.mem_ctrls.wrQLenPdf::63                      0                       # What write queue length does an incoming req see (Count)
system.mem_ctrls.bytesReadWrQ                       0                       # Total number of bytes read from write queue (Byte)
system.mem_ctrls.bytesReadSys                   56768                       # Total read bytes from the system interface side (Byte)
system.mem_ctrls.bytesWrittenSys                    0                       # Total written bytes from the system interface side (Byte)
system.mem_ctrls.avgRdBWSys              180313471.25984067                       # Average system read bandwidth in Byte/s ((Byte/Second))
system.mem_ctrls.avgWrBWSys                0.00000000                       # Average system write bandwidth in Byte/s ((Byte/Second))
system.mem_ctrls.totGap                     314772500                       # Total gap between requests (Tick)
system.mem_ctrls.avgGap                     354873.17                       # Average gap between requests ((Tick/Count))
system.mem_ctrls.requestorReadBytes::ruby.dir_cntrl0        56768                       # Per-requestor bytes read from memory (Byte)
system.mem_ctrls.requestorReadRate::ruby.dir_cntrl0 180313471.259840667248                       # Per-requestor bytes read from memory rate ((Byte/Second))
system.mem_ctrls.requestorReadAccesses::ruby.dir_cntrl0          887                       # Per-requestor read serviced memory accesses (Count)
system.mem_ctrls.requestorReadTotalLat::ruby.dir_cntrl0     22939250                       # Per-requestor read total memory access latency (Tick)
system.mem_ctrls.requestorReadAvgLat::ruby.dir_cntrl0     25861.61                       # Per-requestor read average memory access latency ((Tick/Count))
system.mem_ctrls.dram.bytesRead::ruby.dir_cntrl0        56768                       # Number of bytes read from this memory (Byte)
system.mem_ctrls.dram.bytesRead::total          56768                       # Number of bytes read from this memory (Byte)
system.mem_ctrls.dram.numReads::ruby.dir_cntrl0          887                       # Number of read requests responded to by this memory (Count)
system.mem_ctrls.dram.numReads::total             887                       # Number of read requests responded to by this memory (Count)
system.mem_ctrls.dram.bwRead::ruby.dir_cntrl0    180313471                       # Total read bandwidth from this memory ((Byte/Second))
system.mem_ctrls.dram.bwRead::total         180313471                       # Total read bandwidth from this memory ((Byte/Second))
system.mem_ctrls.dram.bwTotal::ruby.dir_cntrl0    180313471                       # Total bandwidth to/from this memory ((Byte/Second))
system.mem_ctrls.dram.bwTotal::total        180313471                       # Total bandwidth to/from this memory ((Byte/Second))
system.mem_ctrls.dram.readBursts                  887                       # Number of DRAM read bursts (Count)
system.mem_ctrls.dram.writeBursts                   0                       # Number of DRAM write bursts (Count)
system.mem_ctrls.dram.perBankRdBursts::0          146                       # Per bank write bursts (Count)
system.mem_ctrls.dram.perBankRdBursts::1           84                       # Per bank write bursts (Count)
system.mem_ctrls.dram.perBankRdBursts::2          116                       # Per bank write bursts (Count)
system.mem_ctrls.dram.perBankRdBursts::3           47                       # Per bank write bursts (Count)
system.mem_ctrls.dram.perBankRdBursts::4           17                       # Per bank write bursts (Count)
system.mem_ctrls.dram.perBankRdBursts::5           71                       # Per bank write bursts (Count)
system.mem_ctrls.dram.perBankRdBursts::6          124                       # Per bank write bursts (Count)
system.mem_ctrls.dram.perBankRdBursts::7           38                       # Per bank write bursts (Count)
system.mem_ctrls.dram.perBankRdBursts::8           33                       # Per bank write bursts (Count)
system.mem_ctrls.dram.perBankRdBursts::9           17                       # Per bank write bursts (Count)
system.mem_ctrls.dram.perBankRdBursts::10           11                       # Per bank write bursts (Count)
system.mem_ctrls.dram.perBankRdBursts::11           20                       # Per bank write bursts (Count)
system.mem_ctrls.dram.perBankRdBursts::12           72                       # Per bank write bursts (Count)
system.mem_ctrls.dram.perBankRdBursts::13           39                       # Per bank write bursts (Count)
system.mem_ctrls.dram.perBankRdBursts::14           50                       # Per bank write bursts (Count)
system.mem_ctrls.dram.perBankRdBursts::15            2                       # Per bank write bursts (Count)
system.mem_ctrls.dram.perBankWrBursts::0            0                       # Per bank write bursts (Count)
system.mem_ctrls.dram.perBankWrBursts::1            0                       # Per bank write bursts (Count)
system.mem_ctrls.dram.perBankWrBursts::2            0                       # Per bank write bursts (Count)
system.mem_ctrls.dram.perBankWrBursts::3            0                       # Per bank write bursts (Count)
system.mem_ctrls.dram.perBankWrBursts::4            0                       # Per bank write bursts (Count)
system.mem_ctrls.dram.perBankWrBursts::5            0                       # Per bank write bursts (Count)
system.mem_ctrls.dram.perBankWrBursts::6            0                       # Per bank write bursts (Count)
system.mem_ctrls.dram.perBankWrBursts::7            0                       # Per bank write bursts (Count)
system.mem_ctrls.dram.perBankWrBursts::8            0                       # Per bank write bursts (Count)
system.mem_ctrls.dram.perBankWrBursts::9            0                       # Per bank write bursts (Count)
system.mem_ctrls.dram.perBankWrBursts::10            0                       # Per bank write bursts (Count)
system.mem_ctrls.dram.perBankWrBursts::11            0                       # Per bank write bursts (Count)
system.mem_ctrls.dram.perBankWrBursts::12            0                       # Per bank write bursts (Count)
system.mem_ctrls.dram.perBankWrBursts::13            0                       # Per bank write bursts (Count)
system.mem_ctrls.dram.perBankWrBursts::14            0                       # Per bank write bursts (Count)
system.mem_ctrls.dram.perBankWrBursts::15            0                       # Per bank write bursts (Count)
system.mem_ctrls.dram.totQLat                 6308000                       # Total ticks spent queuing (Tick)
system.mem_ctrls.dram.totBusLat               4435000                       # Total ticks spent in databus transfers (Tick)
system.mem_ctrls.dram.totMemAccLat           22939250                       # Total ticks spent from burst creation until serviced by the DRAM (Tick)
system.mem_ctrls.dram.avgQLat                 7111.61                       # Average queueing delay per DRAM burst ((Tick/Count))
system.mem_ctrls.dram.avgBusLat               5000.00                       # Average bus latency per DRAM burst ((Tick/Count))
system.mem_ctrls.dram.avgMemAccLat           25861.61                       # Average memory access latency per DRAM burst ((Tick/Count))
system.mem_ctrls.dram.readRowHits                 690                       # Number of row buffer hits during reads (Count)
system.mem_ctrls.dram.writeRowHits                  0                       # Number of row buffer hits during writes (Count)
system.mem_ctrls.dram.readRowHitRate            77.79                       # Row buffer hit rate for reads (Ratio)
system.mem_ctrls.dram.writeRowHitRate             nan                       # Row buffer hit rate for writes (Ratio)
system.mem_ctrls.dram.bytesPerActivate::samples          190                       # Bytes accessed per row activation (Byte)
system.mem_ctrls.dram.bytesPerActivate::mean   285.642105                       # Bytes accessed per row activation (Byte)
system.mem_ctrls.dram.bytesPerActivate::gmean   182.772501                       # Bytes accessed per row activation (Byte)
system.mem_ctrls.dram.bytesPerActivate::stdev   294.326454                       # Bytes accessed per row activation (Byte)
system.mem_ctrls.dram.bytesPerActivate::0-127           56     29.47%     29.47% # Bytes accessed per row activation (Byte)
system.mem_ctrls.dram.bytesPerActivate::128-255           65     34.21%     63.68% # Bytes accessed per row activation (Byte)
system.mem_ctrls.dram.bytesPerActivate::256-383           22     11.58%     75.26% # Bytes accessed per row activation (Byte)
system.mem_ctrls.dram.bytesPerActivate::384-511           10      5.26%     80.53% # Bytes accessed per row activation (Byte)
system.mem_ctrls.dram.bytesPerActivate::512-639           11      5.79%     86.32% # Bytes accessed per row activation (Byte)
system.mem_ctrls.dram.bytesPerActivate::640-767            4      2.11%     88.42% # Bytes accessed per row activation (Byte)
system.mem_ctrls.dram.bytesPerActivate::768-895            2      1.05%     89.47% # Bytes accessed per row activation (Byte)
system.mem_ctrls.dram.bytesPerActivate::896-1023            4      2.11%     91.58% # Bytes accessed per row activation (Byte)
system.mem_ctrls.dram.bytesPerActivate::1024-1151           16      8.42%    100.00% # Bytes accessed per row activation (Byte)
system.mem_ctrls.dram.bytesPerActivate::total          190                       # Bytes accessed per row activation (Byte)
system.mem_ctrls.dram.dramBytesRead             56768                       # Total bytes read (Byte)
system.mem_ctrls.dram.dramBytesWritten              0                       # Total bytes written (Byte)
system.mem_ctrls.dram.avgRdBW              180.313471                       # Average DRAM read bandwidth in MiBytes/s ((Byte/Second))
system.mem_ctrls.dram.avgWrBW                       0                       # Average DRAM write bandwidth in MiBytes/s ((Byte/Second))
system.mem_ctrls.dram.peakBW                 12800.00                       # Theoretical peak bandwidth in MiByte/s ((Byte/Second))
system.mem_ctrls.dram.busUtil                    1.41                       # Data bus utilization in percentage (Ratio)
system.mem_ctrls.dram.busUtilRead                1.41                       # Data bus utilization in percentage for reads (Ratio)
system.mem_ctrls.dram.busUtilWrite               0.00                       # Data bus utilization in percentage for writes (Ratio)
system.mem_ctrls.dram.pageHitRate               77.79                       # Row buffer hit rate, read and write combined (Ratio)
system.mem_ctrls.dram.power_state.pwrStateResidencyTicks::UNDEFINED    314829500                       # Cumulative time (in ticks) in various power states (Tick)
system.mem_ctrls.dram.rank0.actEnergy         1063860                       # Energy for activate commands per rank (pJ) (Joule)
system.mem_ctrls.dram.rank0.preEnergy          550275                       # Energy for precharge commands per rank (pJ) (Joule)
system.mem_ctrls.dram.rank0.readEnergy        4591020                       # Energy for read commands per rank (pJ) (Joule)
system.mem_ctrls.dram.rank0.writeEnergy             0                       # Energy for write commands per rank (pJ) (Joule)
system.mem_ctrls.dram.rank0.refreshEnergy 24585600.000000                       # Energy for refresh commands per rank (pJ) (Joule)
system.mem_ctrls.dram.rank0.actBackEnergy     40207800                       # Energy for active background per rank (pJ) (Joule)
system.mem_ctrls.dram.rank0.preBackEnergy     87035520                       # Energy for precharge background per rank (pJ) (Joule)
system.mem_ctrls.dram.rank0.actPowerDownEnergy            0                       # Energy for active power-down per rank (pJ) (Joule)
system.mem_ctrls.dram.rank0.prePowerDownEnergy            0                       # Energy for precharge power-down per rank (pJ) (Joule)
system.mem_ctrls.dram.rank0.selfRefreshEnergy            0                       # Energy for self refresh per rank (pJ) (Joule)
system.mem_ctrls.dram.rank0.totalEnergy     158034075                       # Total energy per rank (pJ) (Joule)
system.mem_ctrls.dram.rank0.averagePower   501.967176                       # Core power per rank (mW) (Watt)
system.mem_ctrls.dram.rank0.totalIdleTime            0                       # Total Idle time Per DRAM Rank (Tick)
system.mem_ctrls.dram.rank0.pwrStateTime::IDLE    225882500                       # Time in different power states (Tick)
system.mem_ctrls.dram.rank0.pwrStateTime::REF     10400000                       # Time in different power states (Tick)
system.mem_ctrls.dram.rank0.pwrStateTime::SREF            0                       # Time in different power states (Tick)
system.mem_ctrls.dram.rank0.pwrStateTime::PRE_PDN            0                       # Time in different power states (Tick)
system.mem_ctrls.dram.rank0.pwrStateTime::ACT     78547000                       # Time in different power states (Tick)
system.mem_ctrls.dram.rank0.pwrStateTime::ACT_PDN            0                       # Time in different power states (Tick)
system.mem_ctrls.dram.rank1.actEnergy          342720                       # Energy for activate commands per rank (pJ) (Joule)
system.mem_ctrls.dram.rank1.preEnergy          170775                       # Energy for precharge commands per rank (pJ) (Joule)
system.mem_ctrls.dram.rank1.readEnergy        1742160                       # Energy for read commands per rank (pJ) (Joule)
system.mem_ctrls.dram.rank1.writeEnergy             0                       # Energy for write commands per rank (pJ) (Joule)
system.mem_ctrls.dram.rank1.refreshEnergy 24585600.000000                       # Energy for refresh commands per rank (pJ) (Joule)
system.mem_ctrls.dram.rank1.actBackEnergy     29488380                       # Energy for active background per rank (pJ) (Joule)
system.mem_ctrls.dram.rank1.preBackEnergy     96062400                       # Energy for precharge background per rank (pJ) (Joule)
system.mem_ctrls.dram.rank1.actPowerDownEnergy            0                       # Energy for active power-down per rank (pJ) (Joule)
system.mem_ctrls.dram.rank1.prePowerDownEnergy            0                       # Energy for precharge power-down per rank (pJ) (Joule)
system.mem_ctrls.dram.rank1.selfRefreshEnergy            0                       # Energy for self refresh per rank (pJ) (Joule)
system.mem_ctrls.dram.rank1.totalEnergy     152392035                       # Total energy per rank (pJ) (Joule)
system.mem_ctrls.dram.rank1.averagePower   484.046238                       # Core power per rank (mW) (Watt)
system.mem_ctrls.dram.rank1.totalIdleTime            0                       # Total Idle time Per DRAM Rank (Tick)
system.mem_ctrls.dram.rank1.pwrStateTime::IDLE    249457000                       # Time in different power states (Tick)
system.mem_ctrls.dram.rank1.pwrStateTime::REF     10400000                       # Time in different power states (Tick)
system.mem_ctrls.dram.rank1.pwrStateTime::SREF            0                       # Time in different power states (Tick)
system.mem_ctrls.dram.rank1.pwrStateTime::PRE_PDN            0                       # Time in different power states (Tick)
system.mem_ctrls.dram.rank1.pwrStateTime::ACT     54972500                       # Time in different power states (Tick)
system.mem_ctrls.dram.rank1.pwrStateTime::ACT_PDN            0                       # Time in different power states (Tick)
system.mem_ctrls.power_state.pwrStateResidencyTicks::UNDEFINED    314829500                       # Cumulative time (in ticks) in various power states (Tick)
system.ruby.m_outstandReqHistSeqr::bucket_size            1                       (Unspecified)
system.ruby.m_outstandReqHistSeqr::max_bucket            9                       (Unspecified)
system.ruby.m_outstandReqHistSeqr::samples       260289                       (Unspecified)
system.ruby.m_outstandReqHistSeqr::mean      1.000015                       (Unspecified)
system.ruby.m_outstandReqHistSeqr::gmean     1.000011                       (Unspecified)
system.ruby.m_outstandReqHistSeqr::stdev     0.003920                       (Unspecified)
system.ruby.m_outstandReqHistSeqr        |           0      0.00%      0.00% |      260285    100.00%    100.00% |           4      0.00%    100.00% |           0      0.00%    100.00% |           0      0.00%    100.00% |           0      0.00%    100.00% |           0      0.00%    100.00% |           0      0.00%    100.00% |           0      0.00%    100.00% |           0      0.00%    100.00% (Unspecified)
system.ruby.m_outstandReqHistSeqr::total       260289                       (Unspecified)
system.ruby.m_latencyHistSeqr::bucket_size          128                       (Unspecified)
system.ruby.m_latencyHistSeqr::max_bucket         1279                       (Unspecified)
system.ruby.m_latencyHistSeqr::samples         260289                       (Unspecified)
system.ruby.m_latencyHistSeqr::mean          1.419730                       (Unspecified)
system.ruby.m_latencyHistSeqr::gmean         1.016591                       (Unspecified)
system.ruby.m_latencyHistSeqr::stdev         7.845514                       (Unspecified)
system.ruby.m_latencyHistSeqr            |      260091     99.92%     99.92% |         188      0.07%    100.00% |           0      0.00%    100.00% |           0      0.00%    100.00% |           8      0.00%    100.00% |           2      0.00%    100.00% |           0      0.00%    100.00% |           0      0.00%    100.00% |           0      0.00%    100.00% |           0      0.00%    100.00% (Unspecified)
system.ruby.m_latencyHistSeqr::total           260289                       (Unspecified)
system.ruby.m_hitLatencyHistSeqr::bucket_size            1                       (Unspecified)
system.ruby.m_hitLatencyHistSeqr::max_bucket            9                       (Unspecified)
system.ruby.m_hitLatencyHistSeqr::samples       259390                       (Unspecified)
system.ruby.m_hitLatencyHistSeqr::mean              1                       (Unspecified)
system.ruby.m_hitLatencyHistSeqr::gmean             1                       (Unspecified)
system.ruby.m_hitLatencyHistSeqr         |           0      0.00%      0.00% |      259390    100.00%    100.00% |           0      0.00%    100.00% |           0      0.00%    100.00% |           0      0.00%    100.00% |           0      0.00%    100.00% |           0      0.00%    100.00% |           0      0.00%    100.00% |           0      0.00%    100.00% |           0      0.00%    100.00% (Unspecified)
system.ruby.m_hitLatencyHistSeqr::total        259390                       (Unspecified)
system.ruby.m_missLatencyHistSeqr::bucket_size          128                       (Unspecified)
system.ruby.m_missLatencyHistSeqr::max_bucket         1279                       (Unspecified)
system.ruby.m_missLatencyHistSeqr::samples          899                       (Unspecified)
system.ruby.m_missLatencyHistSeqr::mean    122.525028                       (Unspecified)
system.ruby.m_missLatencyHistSeqr::gmean   117.250003                       (Unspecified)
system.ruby.m_missLatencyHistSeqr::stdev    55.743548                       (Unspecified)
system.ruby.m_missLatencyHistSeqr        |         701     77.98%     77.98% |         188     20.91%     98.89% |           0      0.00%     98.89% |           0      0.00%     98.89% |           8      0.89%     99.78% |           2      0.22%    100.00% |           0      0.00%    100.00% |           0      0.00%    100.00% |           0      0.00%    100.00% |           0      0.00%    100.00% (Unspecified)
system.ruby.m_missLatencyHistSeqr::total          899                       (Unspecified)
system.ruby.Directory_Controller.GETX             247      0.00%      0.00% (Unspecified)
system.ruby.Directory_Controller.GETS             640      0.00%      0.00% (Unspecified)
system.ruby.Directory_Controller.Unblock          639      0.00%      0.00% (Unspecified)
system.ruby.Directory_Controller.Exclusive_Unblock          247      0.00%      0.00% (Unspecified)
system.ruby.Directory_Controller.Memory_Data_Cache          887      0.00%      0.00% (Unspecified)
system.ruby.Directory_Controller.I.GETX           221      0.00%      0.00% (Unspecified)
system.ruby.Directory_Controller.I.GETS           640      0.00%      0.00% (Unspecified)
system.ruby.Directory_Controller.S.GETX            26      0.00%      0.00% (Unspecified)
system.ruby.Directory_Controller.IS_M.Memory_Data_Cache          640      0.00%      0.00% (Unspecified)
system.ruby.Directory_Controller.IS.Unblock          639      0.00%      0.00% (Unspecified)
system.ruby.Directory_Controller.MM_M.Memory_Data_Cache          247      0.00%      0.00% (Unspecified)
system.ruby.Directory_Controller.MM.Exclusive_Unblock          247      0.00%      0.00% (Unspecified)
system.ruby.L1Cache_Controller.Load             11853      0.00%      0.00% (Unspecified)
system.ruby.L1Cache_Controller.Ifetch          235849      0.00%      0.00% (Unspecified)
system.ruby.L1Cache_Controller.Store            12587      0.00%      0.00% (Unspecified)
system.ruby.L1Cache_Controller.L1_Replacement          145      0.00%      0.00% (Unspecified)
system.ruby.L1Cache_Controller.Data               652      0.00%      0.00% (Unspecified)
system.ruby.L1Cache_Controller.Exclusive_Data          247      0.00%      0.00% (Unspecified)
system.ruby.L1Cache_Controller.Writeback_Ack            1      0.00%      0.00% (Unspecified)
system.ruby.L1Cache_Controller.Writeback_Ack_Data          144      0.00%      0.00% (Unspecified)
system.ruby.L1Cache_Controller.All_acks           247      0.00%      0.00% (Unspecified)
system.ruby.L1Cache_Controller.Use_Timeout          247      0.00%      0.00% (Unspecified)
system.ruby.L1Cache_Controller.I.Load             132      0.00%      0.00% (Unspecified)
system.ruby.L1Cache_Controller.I.Ifetch           520      0.00%      0.00% (Unspecified)
system.ruby.L1Cache_Controller.I.Store            221      0.00%      0.00% (Unspecified)
system.ruby.L1Cache_Controller.S.Load             483      0.00%      0.00% (Unspecified)
system.ruby.L1Cache_Controller.S.Ifetch        235329      0.00%      0.00% (Unspecified)
system.ruby.L1Cache_Controller.S.Store             26      0.00%      0.00% (Unspecified)
system.ruby.L1Cache_Controller.S.L1_Replacement          144      0.00%      0.00% (Unspecified)
system.ruby.L1Cache_Controller.MM.Load          11233      0.00%      0.00% (Unspecified)
system.ruby.L1Cache_Controller.MM.Store         11536      0.00%      0.00% (Unspecified)
system.ruby.L1Cache_Controller.MM.L1_Replacement            1      0.00%      0.00% (Unspecified)
system.ruby.L1Cache_Controller.MM_W.Load            5      0.00%      0.00% (Unspecified)
system.ruby.L1Cache_Controller.MM_W.Store          804      0.00%      0.00% (Unspecified)
system.ruby.L1Cache_Controller.MM_W.Use_Timeout          247      0.00%      0.00% (Unspecified)
system.ruby.L1Cache_Controller.IM.Exclusive_Data          221      0.00%      0.00% (Unspecified)
system.ruby.L1Cache_Controller.IS.Data            652      0.00%      0.00% (Unspecified)
system.ruby.L1Cache_Controller.SM.Exclusive_Data           26      0.00%      0.00% (Unspecified)
system.ruby.L1Cache_Controller.OM.All_acks          247      0.00%      0.00% (Unspecified)
system.ruby.L1Cache_Controller.SI.Writeback_Ack            1      0.00%      0.00% (Unspecified)
system.ruby.L1Cache_Controller.SI.Writeback_Ack_Data          143      0.00%      0.00% (Unspecified)
system.ruby.L1Cache_Controller.MI.Writeback_Ack_Data            1      0.00%      0.00% (Unspecified)
system.ruby.L2Cache_Controller.L1_GETS            652      0.00%      0.00% (Unspecified)
system.ruby.L2Cache_Controller.L1_GETX            247      0.00%      0.00% (Unspecified)
system.ruby.L2Cache_Controller.L1_PUTX              1      0.00%      0.00% (Unspecified)
system.ruby.L2Cache_Controller.L1_PUTS_only          144      0.00%      0.00% (Unspecified)
system.ruby.L2Cache_Controller.All_Acks           247      0.00%      0.00% (Unspecified)
system.ruby.L2Cache_Controller.Data               887      0.00%      0.00% (Unspecified)
system.ruby.L2Cache_Controller.L1_WBCLEANDATA          143      0.00%      0.00% (Unspecified)
system.ruby.L2Cache_Controller.L1_WBDIRTYDATA            1      0.00%      0.00% (Unspecified)
system.ruby.L2Cache_Controller.Unblock            652      0.00%      0.00% (Unspecified)
system.ruby.L2Cache_Controller.Exclusive_Unblock          247      0.00%      0.00% (Unspecified)
system.ruby.L2Cache_Controller.I.L1_GETS          640      0.00%      0.00% (Unspecified)
system.ruby.L2Cache_Controller.I.L1_GETX          221      0.00%      0.00% (Unspecified)
system.ruby.L2Cache_Controller.ILS.L1_GETX           26      0.00%      0.00% (Unspecified)
system.ruby.L2Cache_Controller.ILS.L1_PUTS_only          143      0.00%      0.00% (Unspecified)
system.ruby.L2Cache_Controller.ILX.L1_PUTX            1      0.00%      0.00% (Unspecified)
system.ruby.L2Cache_Controller.S.L1_GETS           12      0.00%      0.00% (Unspecified)
system.ruby.L2Cache_Controller.SLS.L1_PUTS_only            1      0.00%      0.00% (Unspecified)
system.ruby.L2Cache_Controller.IW.L1_WBCLEANDATA          143      0.00%      0.00% (Unspecified)
system.ruby.L2Cache_Controller.ILXW.L1_WBDIRTYDATA            1      0.00%      0.00% (Unspecified)
system.ruby.L2Cache_Controller.SW.Unblock            1      0.00%      0.00% (Unspecified)
system.ruby.L2Cache_Controller.IGS.Data           640      0.00%      0.00% (Unspecified)
system.ruby.L2Cache_Controller.IGS.Unblock          639      0.00%      0.00% (Unspecified)
system.ruby.L2Cache_Controller.IGM.Data           221      0.00%      0.00% (Unspecified)
system.ruby.L2Cache_Controller.IGMLS.Data           26      0.00%      0.00% (Unspecified)
system.ruby.L2Cache_Controller.IGMO.All_Acks          247      0.00%      0.00% (Unspecified)
system.ruby.L2Cache_Controller.IGMOU.Exclusive_Unblock          247      0.00%      0.00% (Unspecified)
system.ruby.L2Cache_Controller.SS.Unblock           12      0.00%      0.00% (Unspecified)
system.ruby.RequestType.LD.latency_hist_seqr::bucket_size           64                       (Unspecified)
system.ruby.RequestType.LD.latency_hist_seqr::max_bucket          639                       (Unspecified)
system.ruby.RequestType.LD.latency_hist_seqr::samples        11853                       (Unspecified)
system.ruby.RequestType.LD.latency_hist_seqr::mean     2.424196                       (Unspecified)
system.ruby.RequestType.LD.latency_hist_seqr::gmean     1.055087                       (Unspecified)
system.ruby.RequestType.LD.latency_hist_seqr::stdev    14.836421                       (Unspecified)
system.ruby.RequestType.LD.latency_hist_seqr |       11721     98.89%     98.89% |          86      0.73%     99.61% |          44      0.37%     99.98% |           0      0.00%     99.98% |           0      0.00%     99.98% |           0      0.00%     99.98% |           0      0.00%     99.98% |           0      0.00%     99.98% |           1      0.01%     99.99% |           1      0.01%    100.00% (Unspecified)
system.ruby.RequestType.LD.latency_hist_seqr::total        11853                       (Unspecified)
system.ruby.RequestType.LD.hit_latency_hist_seqr::bucket_size            1                       (Unspecified)
system.ruby.RequestType.LD.hit_latency_hist_seqr::max_bucket            9                       (Unspecified)
system.ruby.RequestType.LD.hit_latency_hist_seqr::samples        11721                       (Unspecified)
system.ruby.RequestType.LD.hit_latency_hist_seqr::mean            1                       (Unspecified)
system.ruby.RequestType.LD.hit_latency_hist_seqr::gmean            1                       (Unspecified)
system.ruby.RequestType.LD.hit_latency_hist_seqr |           0      0.00%      0.00% |       11721    100.00%    100.00% |           0      0.00%    100.00% |           0      0.00%    100.00% |           0      0.00%    100.00% |           0      0.00%    100.00% |           0      0.00%    100.00% |           0      0.00%    100.00% |           0      0.00%    100.00% |           0      0.00%    100.00% (Unspecified)
system.ruby.RequestType.LD.hit_latency_hist_seqr::total        11721                       (Unspecified)
system.ruby.RequestType.LD.miss_latency_hist_seqr::bucket_size           64                       (Unspecified)
system.ruby.RequestType.LD.miss_latency_hist_seqr::max_bucket          639                       (Unspecified)
system.ruby.RequestType.LD.miss_latency_hist_seqr::samples          132                       (Unspecified)
system.ruby.RequestType.LD.miss_latency_hist_seqr::mean   128.886364                       (Unspecified)
system.ruby.RequestType.LD.miss_latency_hist_seqr::gmean   123.359410                       (Unspecified)
system.ruby.RequestType.LD.miss_latency_hist_seqr::stdev    60.155479                       (Unspecified)
system.ruby.RequestType.LD.miss_latency_hist_seqr |           0      0.00%      0.00% |          86     65.15%     65.15% |          44     33.33%     98.48% |           0      0.00%     98.48% |           0      0.00%     98.48% |           0      0.00%     98.48% |           0      0.00%     98.48% |           0      0.00%     98.48% |           1      0.76%     99.24% |           1      0.76%    100.00% (Unspecified)
system.ruby.RequestType.LD.miss_latency_hist_seqr::total          132                       (Unspecified)
system.ruby.RequestType.ST.latency_hist_seqr::bucket_size           32                       (Unspecified)
system.ruby.RequestType.ST.latency_hist_seqr::max_bucket          319                       (Unspecified)
system.ruby.RequestType.ST.latency_hist_seqr::samples        12538                       (Unspecified)
system.ruby.RequestType.ST.latency_hist_seqr::mean     3.253788                       (Unspecified)
system.ruby.RequestType.ST.latency_hist_seqr::gmean     1.096249                       (Unspecified)
system.ruby.RequestType.ST.latency_hist_seqr::stdev    16.216260                       (Unspecified)
system.ruby.RequestType.ST.latency_hist_seqr |       12296     98.07%     98.07% |           0      0.00%     98.07% |           0      0.00%     98.07% |         200      1.60%     99.67% |          24      0.19%     99.86% |          18      0.14%    100.00% |           0      0.00%    100.00% |           0      0.00%    100.00% |           0      0.00%    100.00% |           0      0.00%    100.00% (Unspecified)
system.ruby.RequestType.ST.latency_hist_seqr::total        12538                       (Unspecified)
system.ruby.RequestType.ST.hit_latency_hist_seqr::bucket_size            1                       (Unspecified)
system.ruby.RequestType.ST.hit_latency_hist_seqr::max_bucket            9                       (Unspecified)
system.ruby.RequestType.ST.hit_latency_hist_seqr::samples        12296                       (Unspecified)
system.ruby.RequestType.ST.hit_latency_hist_seqr::mean            1                       (Unspecified)
system.ruby.RequestType.ST.hit_latency_hist_seqr::gmean            1                       (Unspecified)
system.ruby.RequestType.ST.hit_latency_hist_seqr |           0      0.00%      0.00% |       12296    100.00%    100.00% |           0      0.00%    100.00% |           0      0.00%    100.00% |           0      0.00%    100.00% |           0      0.00%    100.00% |           0      0.00%    100.00% |           0      0.00%    100.00% |           0      0.00%    100.00% |           0      0.00%    100.00% (Unspecified)
system.ruby.RequestType.ST.hit_latency_hist_seqr::total        12296                       (Unspecified)
system.ruby.RequestType.ST.miss_latency_hist_seqr::bucket_size           32                       (Unspecified)
system.ruby.RequestType.ST.miss_latency_hist_seqr::max_bucket          319                       (Unspecified)
system.ruby.RequestType.ST.miss_latency_hist_seqr::samples          242                       (Unspecified)
system.ruby.RequestType.ST.miss_latency_hist_seqr::mean   117.768595                       (Unspecified)
system.ruby.RequestType.ST.miss_latency_hist_seqr::gmean   116.869447                       (Unspecified)
system.ruby.RequestType.ST.miss_latency_hist_seqr::stdev    15.891103                       (Unspecified)
system.ruby.RequestType.ST.miss_latency_hist_seqr |           0      0.00%      0.00% |           0      0.00%      0.00% |           0      0.00%      0.00% |         200     82.64%     82.64% |          24      9.92%     92.56% |          18      7.44%    100.00% |           0      0.00%    100.00% |           0      0.00%    100.00% |           0      0.00%    100.00% |           0      0.00%    100.00% (Unspecified)
system.ruby.RequestType.ST.miss_latency_hist_seqr::total          242                       (Unspecified)
system.ruby.RequestType.IFETCH.latency_hist_seqr::bucket_size          128                       (Unspecified)
system.ruby.RequestType.IFETCH.latency_hist_seqr::max_bucket         1279                       (Unspecified)
system.ruby.RequestType.IFETCH.latency_hist_seqr::samples       235849                       (Unspecified)
system.ruby.RequestType.IFETCH.latency_hist_seqr::mean     1.269388                       (Unspecified)
system.ruby.RequestType.IFETCH.latency_hist_seqr::gmean     1.010535                       (Unspecified)
system.ruby.RequestType.IFETCH.latency_hist_seqr::stdev     6.508103                       (Unspecified)
system.ruby.RequestType.IFETCH.latency_hist_seqr |      235740     99.95%     99.95% |         101      0.04%    100.00% |           0      0.00%    100.00% |           0      0.00%    100.00% |           6      0.00%    100.00% |           2      0.00%    100.00% |           0      0.00%    100.00% |           0      0.00%    100.00% |           0      0.00%    100.00% |           0      0.00%    100.00% (Unspecified)
system.ruby.RequestType.IFETCH.latency_hist_seqr::total       235849                       (Unspecified)
system.ruby.RequestType.IFETCH.hit_latency_hist_seqr::bucket_size            1                       (Unspecified)
system.ruby.RequestType.IFETCH.hit_latency_hist_seqr::max_bucket            9                       (Unspecified)
system.ruby.RequestType.IFETCH.hit_latency_hist_seqr::samples       235329                       (Unspecified)
system.ruby.RequestType.IFETCH.hit_latency_hist_seqr::mean            1                       (Unspecified)
system.ruby.RequestType.IFETCH.hit_latency_hist_seqr::gmean            1                       (Unspecified)
system.ruby.RequestType.IFETCH.hit_latency_hist_seqr |           0      0.00%      0.00% |      235329    100.00%    100.00% |           0      0.00%    100.00% |           0      0.00%    100.00% |           0      0.00%    100.00% |           0      0.00%    100.00% |           0      0.00%    100.00% |           0      0.00%    100.00% |           0      0.00%    100.00% |           0      0.00%    100.00% (Unspecified)
system.ruby.RequestType.IFETCH.hit_latency_hist_seqr::total       235329                       (Unspecified)
system.ruby.RequestType.IFETCH.miss_latency_hist_seqr::bucket_size          128                       (Unspecified)
system.ruby.RequestType.IFETCH.miss_latency_hist_seqr::max_bucket         1279                       (Unspecified)
system.ruby.RequestType.IFETCH.miss_latency_hist_seqr::samples          520                       (Unspecified)
system.ruby.RequestType.IFETCH.miss_latency_hist_seqr::mean   123.182692                       (Unspecified)
system.ruby.RequestType.IFETCH.miss_latency_hist_seqr::gmean   115.935686                       (Unspecified)
system.ruby.RequestType.IFETCH.miss_latency_hist_seqr::stdev    65.750091                       (Unspecified)
system.ruby.RequestType.IFETCH.miss_latency_hist_seqr |         411     79.04%     79.04% |         101     19.42%     98.46% |           0      0.00%     98.46% |           0      0.00%     98.46% |           6      1.15%     99.62% |           2      0.38%    100.00% |           0      0.00%    100.00% |           0      0.00%    100.00% |           0      0.00%    100.00% |           0      0.00%    100.00% (Unspecified)
system.ruby.RequestType.IFETCH.miss_latency_hist_seqr::total          520                       (Unspecified)
system.ruby.RequestType.RMW_Read.latency_hist_seqr::bucket_size           16                       (Unspecified)
system.ruby.RequestType.RMW_Read.latency_hist_seqr::max_bucket          159                       (Unspecified)
system.ruby.RequestType.RMW_Read.latency_hist_seqr::samples           21                       (Unspecified)
system.ruby.RequestType.RMW_Read.latency_hist_seqr::mean           18                       (Unspecified)
system.ruby.RequestType.RMW_Read.latency_hist_seqr::gmean     1.980121                       (Unspecified)
system.ruby.RequestType.RMW_Read.latency_hist_seqr::stdev    42.953463                       (Unspecified)
system.ruby.RequestType.RMW_Read.latency_hist_seqr |          18     85.71%     85.71% |           0      0.00%     85.71% |           0      0.00%     85.71% |           0      0.00%     85.71% |           0      0.00%     85.71% |           0      0.00%     85.71% |           2      9.52%     95.24% |           0      0.00%     95.24% |           1      4.76%    100.00% |           0      0.00%    100.00% (Unspecified)
system.ruby.RequestType.RMW_Read.latency_hist_seqr::total           21                       (Unspecified)
system.ruby.RequestType.RMW_Read.hit_latency_hist_seqr::bucket_size            1                       (Unspecified)
system.ruby.RequestType.RMW_Read.hit_latency_hist_seqr::max_bucket            9                       (Unspecified)
system.ruby.RequestType.RMW_Read.hit_latency_hist_seqr::samples           18                       (Unspecified)
system.ruby.RequestType.RMW_Read.hit_latency_hist_seqr::mean            1                       (Unspecified)
system.ruby.RequestType.RMW_Read.hit_latency_hist_seqr::gmean            1                       (Unspecified)
system.ruby.RequestType.RMW_Read.hit_latency_hist_seqr |           0      0.00%      0.00% |          18    100.00%    100.00% |           0      0.00%    100.00% |           0      0.00%    100.00% |           0      0.00%    100.00% |           0      0.00%    100.00% |           0      0.00%    100.00% |           0      0.00%    100.00% |           0      0.00%    100.00% |           0      0.00%    100.00% (Unspecified)
system.ruby.RequestType.RMW_Read.hit_latency_hist_seqr::total           18                       (Unspecified)
system.ruby.RequestType.RMW_Read.miss_latency_hist_seqr::bucket_size           16                       (Unspecified)
system.ruby.RequestType.RMW_Read.miss_latency_hist_seqr::max_bucket          159                       (Unspecified)
system.ruby.RequestType.RMW_Read.miss_latency_hist_seqr::samples            3                       (Unspecified)
system.ruby.RequestType.RMW_Read.miss_latency_hist_seqr::mean          120                       (Unspecified)
system.ruby.RequestType.RMW_Read.miss_latency_hist_seqr::gmean   119.355292                       (Unspecified)
system.ruby.RequestType.RMW_Read.miss_latency_hist_seqr::stdev    15.588457                       (Unspecified)
system.ruby.RequestType.RMW_Read.miss_latency_hist_seqr |           0      0.00%      0.00% |           0      0.00%      0.00% |           0      0.00%      0.00% |           0      0.00%      0.00% |           0      0.00%      0.00% |           0      0.00%      0.00% |           2     66.67%     66.67% |           0      0.00%     66.67% |           1     33.33%    100.00% |           0      0.00%    100.00% (Unspecified)
system.ruby.RequestType.RMW_Read.miss_latency_hist_seqr::total            3                       (Unspecified)
system.ruby.RequestType.Locked_RMW_Read.latency_hist_seqr::bucket_size           16                       (Unspecified)
system.ruby.RequestType.Locked_RMW_Read.latency_hist_seqr::max_bucket          159                       (Unspecified)
system.ruby.RequestType.Locked_RMW_Read.latency_hist_seqr::samples           14                       (Unspecified)
system.ruby.RequestType.Locked_RMW_Read.latency_hist_seqr::mean    16.714286                       (Unspecified)
system.ruby.RequestType.Locked_RMW_Read.latency_hist_seqr::gmean     1.959697                       (Unspecified)
system.ruby.RequestType.Locked_RMW_Read.latency_hist_seqr::stdev    39.945017                       (Unspecified)
system.ruby.RequestType.Locked_RMW_Read.latency_hist_seqr |          12     85.71%     85.71% |           0      0.00%     85.71% |           0      0.00%     85.71% |           0      0.00%     85.71% |           0      0.00%     85.71% |           0      0.00%     85.71% |           2     14.29%    100.00% |           0      0.00%    100.00% |           0      0.00%    100.00% |           0      0.00%    100.00% (Unspecified)
system.ruby.RequestType.Locked_RMW_Read.latency_hist_seqr::total           14                       (Unspecified)
system.ruby.RequestType.Locked_RMW_Read.hit_latency_hist_seqr::bucket_size            1                       (Unspecified)
system.ruby.RequestType.Locked_RMW_Read.hit_latency_hist_seqr::max_bucket            9                       (Unspecified)
system.ruby.RequestType.Locked_RMW_Read.hit_latency_hist_seqr::samples           12                       (Unspecified)
system.ruby.RequestType.Locked_RMW_Read.hit_latency_hist_seqr::mean            1                       (Unspecified)
system.ruby.RequestType.Locked_RMW_Read.hit_latency_hist_seqr::gmean            1                       (Unspecified)
[...]
system.ruby.network.routers1.throttle00.msg_bytes.Unblock_Control::2         7192                       (Unspecified)
system.ruby.network.routers1.throttle01.acc_link_utilization  5004.500000                       # Accumulated link utilization system.ruby.network.int_links1 (Count)
system.ruby.network.routers1.throttle01.link_utilization     0.794795                       # Average link utilization (Ratio)
system.ruby.network.routers1.throttle01.total_msg_count         2817                       # Total number of messages forwarded by this switch (Count)
system.ruby.network.routers1.throttle01.total_msg_bytes        80072                       # Total number of bytes forwarded by this switch (Byte)
system.ruby.network.routers1.throttle01.total_data_msg_bytes        57536                       # Total number of data bytes forwarded by this switch (Byte)
system.ruby.network.routers1.throttle01.total_msg_wait_time            0                       # Total time spend forwarding messages (Tick)
system.ruby.network.routers1.throttle01.total_stall_cy            0                       # Total time spent blocked on any output link (Cycle)
system.ruby.network.routers1.throttle01.total_bw_sat_cy         3596                       # Total time bandwidth was saturated on any output link (Cycle)
system.ruby.network.routers1.throttle01.avg_msg_wait_time            0                       # Average time a message took to be forwarded (Ratio)
system.ruby.network.routers1.throttle01.avg_bandwidth         0.24                       # Average bandwidth (GB/s) (Ratio)
system.ruby.network.routers1.throttle01.avg_useful_bandwidth         0.17                       # Average useful (only data) bandwidth (GB/s) (Ratio)
system.ruby.network.routers1.throttle01.msg_count.Request_Control::1          887                       (Unspecified)
system.ruby.network.routers1.throttle01.msg_bytes.Request_Control::1         7096                       (Unspecified)
system.ruby.network.routers1.throttle01.msg_count.Response_Data::2          887                       (Unspecified)
system.ruby.network.routers1.throttle01.msg_bytes.Response_Data::2        63864                       (Unspecified)
system.ruby.network.routers1.throttle01.msg_count.ResponseL2hit_Data::2           12                       (Unspecified)
system.ruby.network.routers1.throttle01.msg_bytes.ResponseL2hit_Data::2          864                       (Unspecified)
system.ruby.network.routers1.throttle01.msg_count.Writeback_Control::2          145                       (Unspecified)
system.ruby.network.routers1.throttle01.msg_bytes.Writeback_Control::2         1160                       (Unspecified)
system.ruby.network.routers1.throttle01.msg_count.Unblock_Control::2          886                       (Unspecified)
system.ruby.network.routers1.throttle01.msg_bytes.Unblock_Control::2         7088                       (Unspecified)
system.ruby.network.routers2.percent_links_utilized     0.387353                       (Unspecified)
system.ruby.network.routers2.msg_count.Request_Control::1          887                       (Unspecified)
system.ruby.network.routers2.msg_bytes.Request_Control::1         7096                       (Unspecified)
system.ruby.network.routers2.msg_count.Response_Data::2          887                       (Unspecified)
system.ruby.network.routers2.msg_bytes.Response_Data::2        63864                       (Unspecified)
system.ruby.network.routers2.msg_count.Unblock_Control::2          886                       (Unspecified)
system.ruby.network.routers2.msg_bytes.Unblock_Control::2         7088                       (Unspecified)
system.ruby.network.routers2.port_buffers1.m_msg_count          887                       # Number of messages passed the buffer (Count)
system.ruby.network.routers2.port_buffers1.m_buf_msgs     0.001409                       # Average number of messages in buffer ((Count/Tick))
system.ruby.network.routers2.port_buffers2.m_msg_count          886                       # Number of messages passed the buffer (Count)
system.ruby.network.routers2.port_buffers2.m_buf_msgs     0.001407                       # Average number of messages in buffer ((Count/Tick))
system.ruby.network.routers2.port_buffers5.m_msg_count          887                       # Number of messages passed the buffer (Count)
system.ruby.network.routers2.port_buffers5.m_buf_msgs     0.001409                       # Average number of messages in buffer ((Count/Tick))
system.ruby.network.routers2.power_state.pwrStateResidencyTicks::UNDEFINED    314829500                       # Cumulative time (in ticks) in various power states (Tick)
system.ruby.network.routers2.throttle00.acc_link_utilization   886.500000                       # Accumulated link utilization system.ruby.network.ext_links2 (Count)
system.ruby.network.routers2.throttle00.link_utilization     0.140790                       # Average link utilization (Ratio)
system.ruby.network.routers2.throttle00.total_msg_count         1773                       # Total number of messages forwarded by this switch (Count)
system.ruby.network.routers2.throttle00.total_msg_bytes        14184                       # Total number of bytes forwarded by this switch (Byte)
system.ruby.network.routers2.throttle00.total_data_msg_bytes            0                       # Total number of data bytes forwarded by this switch (Byte)
system.ruby.network.routers2.throttle00.total_msg_wait_time            0                       # Total time spend forwarding messages (Tick)
system.ruby.network.routers2.throttle00.total_stall_cy            0                       # Total time spent blocked on any output link (Cycle)
system.ruby.network.routers2.throttle00.total_bw_sat_cy            0                       # Total time bandwidth was saturated on any output link (Cycle)
system.ruby.network.routers2.throttle00.avg_msg_wait_time            0                       # Average time a message took to be forwarded (Ratio)
system.ruby.network.routers2.throttle00.avg_bandwidth         0.04                       # Average bandwidth (GB/s) (Ratio)
system.ruby.network.routers2.throttle00.avg_useful_bandwidth         0.00                       # Average useful (only data) bandwidth (GB/s) (Ratio)
system.ruby.network.routers2.throttle00.msg_count.Request_Control::1          887                       (Unspecified)
system.ruby.network.routers2.throttle00.msg_bytes.Request_Control::1         7096                       (Unspecified)
system.ruby.network.routers2.throttle00.msg_count.Unblock_Control::2          886                       (Unspecified)
system.ruby.network.routers2.throttle00.msg_bytes.Unblock_Control::2         7088                       (Unspecified)
system.ruby.network.routers2.throttle01.acc_link_utilization  3991.500000                       # Accumulated link utilization system.ruby.network.int_links2 (Count)
system.ruby.network.routers2.throttle01.link_utilization     0.633915                       # Average link utilization (Ratio)
system.ruby.network.routers2.throttle01.total_msg_count          887                       # Total number of messages forwarded by this switch (Count)
system.ruby.network.routers2.throttle01.total_msg_bytes        63864                       # Total number of bytes forwarded by this switch (Byte)
system.ruby.network.routers2.throttle01.total_data_msg_bytes        56768                       # Total number of data bytes forwarded by this switch (Byte)
system.ruby.network.routers2.throttle01.total_msg_wait_time            0                       # Total time spend forwarding messages (Tick)
system.ruby.network.routers2.throttle01.total_stall_cy            0                       # Total time spent blocked on any output link (Cycle)
system.ruby.network.routers2.throttle01.total_bw_sat_cy         3548                       # Total time bandwidth was saturated on any output link (Cycle)
system.ruby.network.routers2.throttle01.avg_msg_wait_time            0                       # Average time a message took to be forwarded (Ratio)
system.ruby.network.routers2.throttle01.avg_bandwidth         0.19                       # Average bandwidth (GB/s) (Ratio)
system.ruby.network.routers2.throttle01.avg_useful_bandwidth         0.17                       # Average useful (only data) bandwidth (GB/s) (Ratio)
system.ruby.network.routers2.throttle01.msg_count.Response_Data::2          887                       (Unspecified)
system.ruby.network.routers2.throttle01.msg_bytes.Response_Data::2        63864                       (Unspecified)
system.ruby.network.routers3.percent_links_utilized     0.561997                       (Unspecified)
system.ruby.network.routers3.msg_count.Request_Control::0          899                       (Unspecified)
system.ruby.network.routers3.msg_count.Request_Control::1          887                       (Unspecified)
system.ruby.network.routers3.msg_bytes.Request_Control::0         7192                       (Unspecified)
system.ruby.network.routers3.msg_bytes.Request_Control::1         7096                       (Unspecified)
system.ruby.network.routers3.msg_count.Response_Data::2         1774                       (Unspecified)
system.ruby.network.routers3.msg_bytes.Response_Data::2       127728                       (Unspecified)
system.ruby.network.routers3.msg_count.ResponseL2hit_Data::2           12                       (Unspecified)
system.ruby.network.routers3.msg_bytes.ResponseL2hit_Data::2          864                       (Unspecified)
system.ruby.network.routers3.msg_count.Writeback_Data::0          144                       (Unspecified)
system.ruby.network.routers3.msg_bytes.Writeback_Data::0        10368                       (Unspecified)
system.ruby.network.routers3.msg_count.Writeback_Control::0          145                       (Unspecified)
system.ruby.network.routers3.msg_count.Writeback_Control::2          145                       (Unspecified)
system.ruby.network.routers3.msg_bytes.Writeback_Control::0         1160                       (Unspecified)
system.ruby.network.routers3.msg_bytes.Writeback_Control::2         1160                       (Unspecified)
system.ruby.network.routers3.msg_count.Unblock_Control::2         1786                       (Unspecified)
system.ruby.network.routers3.msg_bytes.Unblock_Control::2        14288                       (Unspecified)
system.ruby.network.routers3.port_buffers2.m_msg_count         1044                       # Number of messages passed the buffer (Count)
system.ruby.network.routers3.port_buffers2.m_buf_msgs     0.001658                       # Average number of messages in buffer ((Count/Tick))
system.ruby.network.routers3.port_buffers3.m_msg_count         1188                       # Number of messages passed the buffer (Count)
system.ruby.network.routers3.port_buffers3.m_buf_msgs     0.001887                       # Average number of messages in buffer ((Count/Tick))
system.ruby.network.routers3.port_buffers5.m_msg_count         1787                       # Number of messages passed the buffer (Count)
system.ruby.network.routers3.port_buffers5.m_buf_msgs     0.002838                       # Average number of messages in buffer ((Count/Tick))
system.ruby.network.routers3.port_buffers7.m_msg_count          887                       # Number of messages passed the buffer (Count)
system.ruby.network.routers3.port_buffers7.m_buf_msgs     0.001409                       # Average number of messages in buffer ((Count/Tick))
system.ruby.network.routers3.port_buffers8.m_msg_count          886                       # Number of messages passed the buffer (Count)
system.ruby.network.routers3.port_buffers8.m_buf_msgs     0.001407                       # Average number of messages in buffer ((Count/Tick))
system.ruby.network.routers3.power_state.pwrStateResidencyTicks::UNDEFINED    314829500                       # Cumulative time (in ticks) in various power states (Tick)
system.ruby.network.routers3.throttle00.acc_link_utilization         4118                       # Accumulated link utilization system.ruby.network.int_links3 (Count)
system.ruby.network.routers3.throttle00.link_utilization     0.654005                       # Average link utilization (Ratio)
system.ruby.network.routers3.throttle00.total_msg_count         1044                       # Total number of messages forwarded by this switch (Count)
system.ruby.network.routers3.throttle00.total_msg_bytes        65888                       # Total number of bytes forwarded by this switch (Byte)
system.ruby.network.routers3.throttle00.total_data_msg_bytes        57536                       # Total number of data bytes forwarded by this switch (Byte)
system.ruby.network.routers3.throttle00.total_msg_wait_time            0                       # Total time spend forwarding messages (Tick)
system.ruby.network.routers3.throttle00.total_stall_cy            0                       # Total time spent blocked on any output link (Cycle)
system.ruby.network.routers3.throttle00.total_bw_sat_cy         3596                       # Total time bandwidth was saturated on any output link (Cycle)
system.ruby.network.routers3.throttle00.avg_msg_wait_time            0                       # Average time a message took to be forwarded (Ratio)
system.ruby.network.routers3.throttle00.avg_bandwidth         0.19                       # Average bandwidth (GB/s) (Ratio)
system.ruby.network.routers3.throttle00.avg_useful_bandwidth         0.17                       # Average useful (only data) bandwidth (GB/s) (Ratio)
system.ruby.network.routers3.throttle00.msg_count.Response_Data::2          887                       (Unspecified)
system.ruby.network.routers3.throttle00.msg_bytes.Response_Data::2        63864                       (Unspecified)
system.ruby.network.routers3.throttle00.msg_count.ResponseL2hit_Data::2           12                       (Unspecified)
system.ruby.network.routers3.throttle00.msg_bytes.ResponseL2hit_Data::2          864                       (Unspecified)
system.ruby.network.routers3.throttle00.msg_count.Writeback_Control::2          145                       (Unspecified)
system.ruby.network.routers3.throttle00.msg_bytes.Writeback_Control::2         1160                       (Unspecified)
system.ruby.network.routers3.throttle01.acc_link_utilization  5611.500000                       # Accumulated link utilization system.ruby.network.int_links4 (Count)
system.ruby.network.routers3.throttle01.link_utilization     0.891197                       # Average link utilization (Ratio)
system.ruby.network.routers3.throttle01.total_msg_count         2975                       # Total number of messages forwarded by this switch (Count)
system.ruby.network.routers3.throttle01.total_msg_bytes        89784                       # Total number of bytes forwarded by this switch (Byte)
system.ruby.network.routers3.throttle01.total_data_msg_bytes        65984                       # Total number of data bytes forwarded by this switch (Byte)
system.ruby.network.routers3.throttle01.total_msg_wait_time            0                       # Total time spend forwarding messages (Tick)
system.ruby.network.routers3.throttle01.total_stall_cy            0                       # Total time spent blocked on any output link (Cycle)
system.ruby.network.routers3.throttle01.total_bw_sat_cy         4124                       # Total time bandwidth was saturated on any output link (Cycle)
system.ruby.network.routers3.throttle01.avg_msg_wait_time            0                       # Average time a message took to be forwarded (Ratio)
system.ruby.network.routers3.throttle01.avg_bandwidth         0.27                       # Average bandwidth (GB/s) (Ratio)
system.ruby.network.routers3.throttle01.avg_useful_bandwidth         0.20                       # Average useful (only data) bandwidth (GB/s) (Ratio)
system.ruby.network.routers3.throttle01.msg_count.Request_Control::0          899                       (Unspecified)
system.ruby.network.routers3.throttle01.msg_bytes.Request_Control::0         7192                       (Unspecified)
system.ruby.network.routers3.throttle01.msg_count.Response_Data::2          887                       (Unspecified)
system.ruby.network.routers3.throttle01.msg_bytes.Response_Data::2        63864                       (Unspecified)
system.ruby.network.routers3.throttle01.msg_count.Writeback_Data::0          144                       (Unspecified)
system.ruby.network.routers3.throttle01.msg_bytes.Writeback_Data::0        10368                       (Unspecified)
system.ruby.network.routers3.throttle01.msg_count.Writeback_Control::0          145                       (Unspecified)
system.ruby.network.routers3.throttle01.msg_bytes.Writeback_Control::0         1160                       (Unspecified)
system.ruby.network.routers3.throttle01.msg_count.Unblock_Control::2          900                       (Unspecified)
system.ruby.network.routers3.throttle01.msg_bytes.Unblock_Control::2         7200                       (Unspecified)
system.ruby.network.routers3.throttle02.acc_link_utilization   886.500000                       # Accumulated link utilization system.ruby.network.int_links5 (Count)
system.ruby.network.routers3.throttle02.link_utilization     0.140790                       # Average link utilization (Ratio)
system.ruby.network.routers3.throttle02.total_msg_count         1773                       # Total number of messages forwarded by this switch (Count)
system.ruby.network.routers3.throttle02.total_msg_bytes        14184                       # Total number of bytes forwarded by this switch (Byte)
system.ruby.network.routers3.throttle02.total_data_msg_bytes            0                       # Total number of data bytes forwarded by this switch (Byte)
system.ruby.network.routers3.throttle02.total_msg_wait_time            0                       # Total time spend forwarding messages (Tick)
system.ruby.network.routers3.throttle02.total_stall_cy            0                       # Total time spent blocked on any output link (Cycle)
system.ruby.network.routers3.throttle02.total_bw_sat_cy            0                       # Total time bandwidth was saturated on any output link (Cycle)
system.ruby.network.routers3.throttle02.avg_msg_wait_time            0                       # Average time a message took to be forwarded (Ratio)
system.ruby.network.routers3.throttle02.avg_bandwidth         0.04                       # Average bandwidth (GB/s) (Ratio)
system.ruby.network.routers3.throttle02.avg_useful_bandwidth         0.00                       # Average useful (only data) bandwidth (GB/s) (Ratio)
system.ruby.network.routers3.throttle02.msg_count.Request_Control::1          887                       (Unspecified)
system.ruby.network.routers3.throttle02.msg_bytes.Request_Control::1         7096                       (Unspecified)
system.ruby.network.routers3.throttle02.msg_count.Unblock_Control::2          886                       (Unspecified)
system.ruby.network.routers3.throttle02.msg_bytes.Unblock_Control::2         7088                       (Unspecified)
system.ruby.power_state.pwrStateResidencyTicks::UNDEFINED    314829500                       # Cumulative time (in ticks) in various power states (Tick)
system.sys_port_proxy.power_state.pwrStateResidencyTicks::UNDEFINED    314829500                       # Cumulative time (in ticks) in various power states (Tick)
system.voltage_domain.voltage                       1                       # Voltage in Volts (Volt)
system.workload.inst.arm                            0                       # number of arm instructions executed (Count)
system.workload.inst.quiesce                        0                       # number of quiesce instructions executed (Count)

---------- End Simulation Statistics   ----------
