
---------- Begin Simulation Statistics ----------
simSeconds                                   0.000903                       # Number of seconds simulated (Second)
simTicks                                    903071000                       # Number of ticks simulated (Tick)
finalTick                                   903071000                       # Number of ticks from beginning of simulation (restored from checkpoints and never reset) (Tick)
simFreq                                  1000000000000                       # The number of ticks per simulated second ((Tick/Second))
hostSeconds                                      1.63                       # Real time elapsed on the host (Second)
hostTickRate                                554323073                       # The number of ticks simulated per host second (ticks/s) ((Tick/Second))
hostMemory                                    2614928                       # Number of bytes of host memory used (Byte)
simInsts                                       576671                       # Number of instructions simulated (Count)
simOps                                        1114807                       # Number of ops (including micro ops) simulated (Count)
hostInstRate                                   353946                       # Simulator instruction rate (inst/s) ((Count/Second))
hostOpRate                                     684239                       # Simulator op (including micro ops) rate (op/s) ((Count/Second))
system.clk_domain.clock                          1000                       # Clock period in ticks (Tick)
system.cpu0.numCycles                         1806142                       # Number of cpu cycles simulated (Cycle)
system.cpu0.cpi                             12.752989                       # CPI: cycles per instruction (core level) ((Cycle/Count))
system.cpu0.ipc                              0.078413                       # IPC: instructions per cycle (core level) ((Count/Cycle))
system.cpu0.numWorkItemsStarted                     0                       # Number of work items this cpu started (Count)
system.cpu0.numWorkItemsCompleted                   0                       # Number of work items this cpu completed (Count)
system.cpu0.commitStats0.numInsts              141625                       # Number of instructions committed (thread level) (Count)
system.cpu0.commitStats0.numOps                272053                       # Number of ops (including micro ops) committed (thread level) (Count)
system.cpu0.commitStats0.numInstsNotNOP             0                       # Number of instructions committed excluding NOPs or prefetches (Count)
system.cpu0.commitStats0.numOpsNotNOP               0                       # Number of Ops (including micro ops) Simulated (Count)
system.cpu0.commitStats0.cpi                12.752989                       # CPI: cycles per instruction (thread level) ((Cycle/Count))
system.cpu0.commitStats0.ipc                 0.078413                       # IPC: instructions per cycle (thread level) ((Count/Cycle))
system.cpu0.commitStats0.numMemRefs                 0                       # Number of memory references committed (Count)
system.cpu0.commitStats0.numFpInsts              1354                       # Number of float instructions (Count)
system.cpu0.commitStats0.numIntInsts           271192                       # Number of integer instructions (Count)
system.cpu0.commitStats0.numLoadInsts           11995                       # Number of load instructions (Count)
system.cpu0.commitStats0.numStoreInsts          12550                       # Number of store instructions (Count)
system.cpu0.commitStats0.numVecInsts                0                       # Number of vector instructions (Count)
system.cpu0.commitStats0.committedInstType::No_OpClass          209      0.08%      0.08% # Class of committed instruction. (Count)
system.cpu0.commitStats0.committedInstType::IntAlu       246713     90.69%     90.76% # Class of committed instruction. (Count)
system.cpu0.commitStats0.committedInstType::IntMult           12      0.00%     90.77% # Class of committed instruction. (Count)
system.cpu0.commitStats0.committedInstType::IntDiv           21      0.01%     90.77% # Class of committed instruction. (Count)
system.cpu0.commitStats0.committedInstType::FloatAdd          172      0.06%     90.84% # Class of committed instruction. (Count)
system.cpu0.commitStats0.committedInstType::FloatCmp            0      0.00%     90.84% # Class of committed instruction. (Count)
system.cpu0.commitStats0.committedInstType::FloatCvt            0      0.00%     90.84% # Class of committed instruction. (Count)
system.cpu0.commitStats0.committedInstType::FloatMult            0      0.00%     90.84% # Class of committed instruction. (Count)
system.cpu0.commitStats0.committedInstType::FloatMultAcc            0      0.00%     90.84% # Class of committed instruction. (Count)
system.cpu0.commitStats0.committedInstType::FloatDiv            0      0.00%     90.84% # Class of committed instruction. (Count)
system.cpu0.commitStats0.committedInstType::FloatMisc            0      0.00%     90.84% # Class of committed instruction. (Count)
system.cpu0.commitStats0.committedInstType::FloatSqrt            0      0.00%     90.84% # Class of committed instruction. (Count)
system.cpu0.commitStats0.committedInstType::SimdAdd            8      0.00%     90.84% # Class of committed instruction. (Count)
system.cpu0.commitStats0.committedInstType::SimdAddAcc            0      0.00%     90.84% # Class of committed instruction. (Count)
system.cpu0.commitStats0.committedInstType::SimdAlu           96      0.04%     90.88% # Class of committed instruction. (Count)
system.cpu0.commitStats0.committedInstType::SimdCmp            0      0.00%     90.88% # Class of committed instruction. (Count)
system.cpu0.commitStats0.committedInstType::SimdCvt           48      0.02%     90.89% # Class of committed instruction. (Count)
system.cpu0.commitStats0.committedInstType::SimdMisc          229      0.08%     90.98% # Class of committed instruction. (Count)
system.cpu0.commitStats0.committedInstType::SimdMult            0      0.00%     90.98% # Class of committed instruction. (Count)
system.cpu0.commitStats0.committedInstType::SimdMultAcc            0      0.00%     90.98% # Class of committed instruction. (Count)
system.cpu0.commitStats0.committedInstType::SimdMatMultAcc            0      0.00%     90.98% # Class of committed instruction. (Count)
system.cpu0.commitStats0.committedInstType::SimdShift            0      0.00%     90.98% # Class of committed instruction. (Count)
system.cpu0.commitStats0.committedInstType::SimdShiftAcc            0      0.00%     90.98% # Class of committed instruction. (Count)
system.cpu0.commitStats0.committedInstType::SimdDiv            0      0.00%     90.98% # Class of committed instruction. (Count)
system.cpu0.commitStats0.committedInstType::SimdSqrt            0      0.00%     90.98% # Class of committed instruction. (Count)
system.cpu0.commitStats0.committedInstType::SimdFloatAdd            0      0.00%     90.98% # Class of committed instruction. (Count)
system.cpu0.commitStats0.committedInstType::SimdFloatAlu            0      0.00%     90.98% # Class of committed instruction. (Count)
system.cpu0.commitStats0.committedInstType::SimdFloatCmp            0      0.00%     90.98% # Class of committed instruction. (Count)
system.cpu0.commitStats0.committedInstType::SimdFloatCvt            0      0.00%     90.98% # Class of committed instruction. (Count)
system.cpu0.commitStats0.committedInstType::SimdFloatDiv            0      0.00%     90.98% # Class of committed instruction. (Count)
system.cpu0.commitStats0.committedInstType::SimdFloatMisc            0      0.00%     90.98% # Class of committed instruction. (Count)
system.cpu0.commitStats0.committedInstType::SimdFloatMult            0      0.00%     90.98% # Class of committed instruction. (Count)
system.cpu0.commitStats0.committedInstType::SimdFloatMultAcc            0      0.00%     90.98% # Class of committed instruction. (Count)
system.cpu0.commitStats0.committedInstType::SimdFloatMatMultAcc            0      0.00%     90.98% # Class of committed instruction. (Count)
system.cpu0.commitStats0.committedInstType::SimdFloatSqrt            0      0.00%     90.98% # Class of committed instruction. (Count)
system.cpu0.commitStats0.committedInstType::SimdReduceAdd            0      0.00%     90.98% # Class of committed instruction. (Count)
system.cpu0.commitStats0.committedInstType::SimdReduceAlu            0      0.00%     90.98% # Class of committed instruction. (Count)
system.cpu0.commitStats0.committedInstType::SimdReduceCmp            0      0.00%     90.98% # Class of committed instruction. (Count)
system.cpu0.commitStats0.committedInstType::SimdFloatReduceAdd            0      0.00%     90.98% # Class of committed instruction. (Count)
system.cpu0.commitStats0.committedInstType::SimdFloatReduceCmp            0      0.00%     90.98% # Class of committed instruction. (Count)
system.cpu0.commitStats0.committedInstType::SimdAes            0      0.00%     90.98% # Class of committed instruction. (Count)
system.cpu0.commitStats0.committedInstType::SimdAesMix            0      0.00%     90.98% # Class of committed instruction. (Count)
system.cpu0.commitStats0.committedInstType::SimdSha1Hash            0      0.00%     90.98% # Class of committed instruction. (Count)
system.cpu0.commitStats0.committedInstType::SimdSha1Hash2            0      0.00%     90.98% # Class of committed instruction. (Count)
system.cpu0.commitStats0.committedInstType::SimdSha256Hash            0      0.00%     90.98% # Class of committed instruction. (Count)
system.cpu0.commitStats0.committedInstType::SimdSha256Hash2            0      0.00%     90.98% # Class of committed instruction. (Count)
system.cpu0.commitStats0.committedInstType::SimdShaSigma2            0      0.00%     90.98% # Class of committed instruction. (Count)
system.cpu0.commitStats0.committedInstType::SimdShaSigma3            0      0.00%     90.98% # Class of committed instruction. (Count)
system.cpu0.commitStats0.committedInstType::SimdPredAlu            0      0.00%     90.98% # Class of committed instruction. (Count)
system.cpu0.commitStats0.committedInstType::Matrix            0      0.00%     90.98% # Class of committed instruction. (Count)
system.cpu0.commitStats0.committedInstType::MatrixMov            0      0.00%     90.98% # Class of committed instruction. (Count)
system.cpu0.commitStats0.committedInstType::MatrixOP            0      0.00%     90.98% # Class of committed instruction. (Count)
system.cpu0.commitStats0.committedInstType::MemRead        11874      4.36%     95.34% # Class of committed instruction. (Count)
system.cpu0.commitStats0.committedInstType::MemWrite        12027      4.42%     99.76% # Class of committed instruction. (Count)
system.cpu0.commitStats0.committedInstType::FloatMemRead          121      0.04%     99.81% # Class of committed instruction. (Count)
system.cpu0.commitStats0.committedInstType::FloatMemWrite          523      0.19%    100.00% # Class of committed instruction. (Count)
system.cpu0.commitStats0.committedInstType::IprAccess            0      0.00%    100.00% # Class of committed instruction. (Count)
system.cpu0.commitStats0.committedInstType::InstPrefetch            0      0.00%    100.00% # Class of committed instruction. (Count)
system.cpu0.commitStats0.committedInstType::SimdUnitStrideLoad            0      0.00%    100.00% # Class of committed instruction. (Count)
system.cpu0.commitStats0.committedInstType::SimdUnitStrideStore            0      0.00%    100.00% # Class of committed instruction. (Count)
system.cpu0.commitStats0.committedInstType::SimdUnitStrideMaskLoad            0      0.00%    100.00% # Class of committed instruction. (Count)
system.cpu0.commitStats0.committedInstType::SimdUnitStrideMaskStore            0      0.00%    100.00% # Class of committed instruction. (Count)
system.cpu0.commitStats0.committedInstType::SimdStridedLoad            0      0.00%    100.00% # Class of committed instruction. (Count)
system.cpu0.commitStats0.committedInstType::SimdStridedStore            0      0.00%    100.00% # Class of committed instruction. (Count)
system.cpu0.commitStats0.committedInstType::SimdIndexedLoad            0      0.00%    100.00% # Class of committed instruction. (Count)
system.cpu0.commitStats0.committedInstType::SimdIndexedStore            0      0.00%    100.00% # Class of committed instruction. (Count)
system.cpu0.commitStats0.committedInstType::SimdWholeRegisterLoad            0      0.00%    100.00% # Class of committed instruction. (Count)
system.cpu0.commitStats0.committedInstType::SimdWholeRegisterStore            0      0.00%    100.00% # Class of committed instruction. (Count)
system.cpu0.commitStats0.committedInstType::SimdUnitStrideFaultOnlyFirstLoad            0      0.00%    100.00% # Class of committed instruction. (Count)
system.cpu0.commitStats0.committedInstType::SimdUnitStrideSegmentedLoad            0      0.00%    100.00% # Class of committed instruction. (Count)
system.cpu0.commitStats0.committedInstType::SimdUnitStrideSegmentedStore            0      0.00%    100.00% # Class of committed instruction. (Count)
system.cpu0.commitStats0.committedInstType::SimdUnitStrideSegmentedFaultOnlyFirstLoad            0      0.00%    100.00% # Class of committed instruction. (Count)
system.cpu0.commitStats0.committedInstType::SimdStrideSegmentedLoad            0      0.00%    100.00% # Class of committed instruction. (Count)
system.cpu0.commitStats0.committedInstType::SimdStrideSegmentedStore            0      0.00%    100.00% # Class of committed instruction. (Count)
system.cpu0.commitStats0.committedInstType::SimdExt            0      0.00%    100.00% # Class of committed instruction. (Count)
system.cpu0.commitStats0.committedInstType::SimdFloatExt            0      0.00%    100.00% # Class of committed instruction. (Count)
system.cpu0.commitStats0.committedInstType::SimdConfig            0      0.00%    100.00% # Class of committed instruction. (Count)
system.cpu0.commitStats0.committedInstType::total       272053                       # Class of committed instruction. (Count)
system.cpu0.commitStats0.committedControl::IsControl        52188                       # Class of control type instructions committed (Count)
system.cpu0.commitStats0.committedControl::IsDirectControl        51940                       # Class of control type instructions committed (Count)
system.cpu0.commitStats0.committedControl::IsIndirectControl          248                       # Class of control type instructions committed (Count)
system.cpu0.commitStats0.committedControl::IsCondControl        41651                       # Class of control type instructions committed (Count)
system.cpu0.commitStats0.committedControl::IsUncondControl        10537                       # Class of control type instructions committed (Count)
system.cpu0.commitStats0.committedControl::IsCall          180                       # Class of control type instructions committed (Count)
system.cpu0.commitStats0.committedControl::IsReturn          175                       # Class of control type instructions committed (Count)
system.cpu0.exec_context.thread_0.numMatAluAccesses            0                       # Number of matrix alu accesses (Count)
system.cpu0.exec_context.thread_0.numCallsReturns          355                       # Number of times a function call or return occured (Count)
system.cpu0.exec_context.thread_0.numMatInsts            0                       # Number of matrix instructions (Count)
system.cpu0.exec_context.thread_0.numIdleCycles     0.002000                       # Number of idle cycles (Cycle)
system.cpu0.exec_context.thread_0.numBusyCycles 1806141.998000                       # Number of busy cycles (Cycle)
system.cpu0.exec_context.thread_0.notIdleFraction     1.000000                       # Percentage of non-idle cycles (Ratio)
system.cpu0.exec_context.thread_0.idleFraction     0.000000                       # Percentage of idle cycles (Ratio)
system.cpu0.executeStats0.numInsts                  0                       # Number of executed instructions (Count)
system.cpu0.executeStats0.numNop                    0                       # Number of nop insts executed (Count)
system.cpu0.executeStats0.numBranches               0                       # Number of branches executed (Count)
system.cpu0.executeStats0.numLoadInsts              0                       # Number of load instructions executed (Count)
system.cpu0.executeStats0.numStoreInsts         24545                       # Number of stores executed (Count)
system.cpu0.executeStats0.instRate                  0                       # Inst execution rate ((Count/Cycle))
system.cpu0.executeStats0.numFpAluAccesses         1354                       # Number of float alu accesses (Count)
system.cpu0.executeStats0.numFpRegReads          1462                       # Number of times the floating registers were read (Count)
system.cpu0.executeStats0.numFpRegWrites          785                       # Number of times the floating registers were written (Count)
system.cpu0.executeStats0.numIntAluAccesses       271192                       # Number of integer alu accesses (Count)
system.cpu0.executeStats0.numIntRegReads       283768                       # Number of times the integer registers were read (Count)
system.cpu0.executeStats0.numIntRegWrites       164833                       # Number of times the integer registers were written (Count)
system.cpu0.executeStats0.numMemRefs            24545                       # Number of memory refs (Count)
system.cpu0.executeStats0.numMiscRegReads       129136                       # Number of times the Misc registers were read (Count)
system.cpu0.executeStats0.numVecAluAccesses            0                       # Number of vector alu accesses (Count)
system.cpu0.executeStats0.numDiscardedOps            0                       # Number of ops (including micro ops) which were discarded before commit (Count)
system.cpu0.fetchStats0.numInsts               141625                       # Number of instructions fetched (thread level) (Count)
system.cpu0.fetchStats0.numOps                 272053                       # Number of ops (including micro ops) fetched (thread level) (Count)
system.cpu0.fetchStats0.fetchRate            0.078413                       # Number of inst fetches per cycle ((Count/Cycle))
system.cpu0.fetchStats0.numBranches             52188                       # Number of branches fetched (Count)
system.cpu0.fetchStats0.branchRate           0.028895                       # Number of branch fetches per cycle (Ratio)
system.cpu0.fetchStats0.numFetchSuspends            0                       # Number of times Execute suspended instruction fetching (Count)
system.cpu0.interrupts.clk_domain.clock          8000                       # Clock period in ticks (Tick)
system.cpu0.mmu.dtb.rdAccesses                  11999                       # TLB accesses on read requests (Count)
system.cpu0.mmu.dtb.wrAccesses                  12550                       # TLB accesses on write requests (Count)
system.cpu0.mmu.dtb.rdMisses                       15                       # TLB misses on read requests (Count)
system.cpu0.mmu.dtb.wrMisses                       11                       # TLB misses on write requests (Count)
system.cpu0.mmu.dtb.walker.power_state.pwrStateResidencyTicks::UNDEFINED    903071000                       # Cumulative time (in ticks) in various power states (Tick)
system.cpu0.mmu.itb.rdAccesses                      0                       # TLB accesses on read requests (Count)
system.cpu0.mmu.itb.wrAccesses                 206051                       # TLB accesses on write requests (Count)
system.cpu0.mmu.itb.rdMisses                        0                       # TLB misses on read requests (Count)
system.cpu0.mmu.itb.wrMisses                       46                       # TLB misses on write requests (Count)
system.cpu0.mmu.itb.walker.power_state.pwrStateResidencyTicks::UNDEFINED    903071000                       # Cumulative time (in ticks) in various power states (Tick)
system.cpu0.power_state.pwrStateResidencyTicks::ON    903071000                       # Cumulative time (in ticks) in various power states (Tick)
system.cpu0.thread_0.numInsts                       0                       # Number of Instructions committed (Count)
system.cpu0.thread_0.numOps                         0                       # Number of Ops committed (Count)
system.cpu0.thread_0.numMemRefs                     0                       # Number of Memory References (Count)
system.cpu0.workload.numSyscalls                   15                       # Number of system calls (Count)
system.cpu1.numCycles                         1805928                       # Number of cpu cycles simulated (Cycle)
system.cpu1.cpi                             12.448924                       # CPI: cycles per instruction (core level) ((Cycle/Count))
system.cpu1.ipc                              0.080328                       # IPC: instructions per cycle (core level) ((Count/Cycle))
system.cpu1.numWorkItemsStarted                     0                       # Number of work items this cpu started (Count)
system.cpu1.numWorkItemsCompleted                   0                       # Number of work items this cpu completed (Count)
system.cpu1.commitStats0.numInsts              145067                       # Number of instructions committed (thread level) (Count)
system.cpu1.commitStats0.numOps                281009                       # Number of ops (including micro ops) committed (thread level) (Count)
system.cpu1.commitStats0.numInstsNotNOP             0                       # Number of instructions committed excluding NOPs or prefetches (Count)
system.cpu1.commitStats0.numOpsNotNOP               0                       # Number of Ops (including micro ops) Simulated (Count)
system.cpu1.commitStats0.cpi                12.448924                       # CPI: cycles per instruction (thread level) ((Cycle/Count))
system.cpu1.commitStats0.ipc                 0.080328                       # IPC: instructions per cycle (thread level) ((Count/Cycle))
system.cpu1.commitStats0.numMemRefs                 0                       # Number of memory references committed (Count)
system.cpu1.commitStats0.numFpInsts              1354                       # Number of float instructions (Count)
system.cpu1.commitStats0.numIntInsts           280149                       # Number of integer instructions (Count)
system.cpu1.commitStats0.numLoadInsts           13605                       # Number of load instructions (Count)
system.cpu1.commitStats0.numStoreInsts          11895                       # Number of store instructions (Count)
system.cpu1.commitStats0.numVecInsts                0                       # Number of vector instructions (Count)
system.cpu1.commitStats0.committedInstType::No_OpClass          209      0.07%      0.07% # Class of committed instruction. (Count)
system.cpu1.commitStats0.committedInstType::IntAlu       254714     90.64%     90.72% # Class of committed instruction. (Count)
system.cpu1.commitStats0.committedInstType::IntMult           12      0.00%     90.72% # Class of committed instruction. (Count)
system.cpu1.commitStats0.committedInstType::IntDiv           21      0.01%     90.73% # Class of committed instruction. (Count)
system.cpu1.commitStats0.committedInstType::FloatAdd          172      0.06%     90.79% # Class of committed instruction. (Count)
system.cpu1.commitStats0.committedInstType::FloatCmp            0      0.00%     90.79% # Class of committed instruction. (Count)
system.cpu1.commitStats0.committedInstType::FloatCvt            0      0.00%     90.79% # Class of committed instruction. (Count)
system.cpu1.commitStats0.committedInstType::FloatMult            0      0.00%     90.79% # Class of committed instruction. (Count)
system.cpu1.commitStats0.committedInstType::FloatMultAcc            0      0.00%     90.79% # Class of committed instruction. (Count)
system.cpu1.commitStats0.committedInstType::FloatDiv            0      0.00%     90.79% # Class of committed instruction. (Count)
system.cpu1.commitStats0.committedInstType::FloatMisc            0      0.00%     90.79% # Class of committed instruction. (Count)
system.cpu1.commitStats0.committedInstType::FloatSqrt            0      0.00%     90.79% # Class of committed instruction. (Count)
system.cpu1.commitStats0.committedInstType::SimdAdd            8      0.00%     90.79% # Class of committed instruction. (Count)
system.cpu1.commitStats0.committedInstType::SimdAddAcc            0      0.00%     90.79% # Class of committed instruction. (Count)
system.cpu1.commitStats0.committedInstType::SimdAlu           96      0.03%     90.83% # Class of committed instruction. (Count)
system.cpu1.commitStats0.committedInstType::SimdCmp            0      0.00%     90.83% # Class of committed instruction. (Count)
system.cpu1.commitStats0.committedInstType::SimdCvt           48      0.02%     90.84% # Class of committed instruction. (Count)
system.cpu1.commitStats0.committedInstType::SimdMisc          229      0.08%     90.93% # Class of committed instruction. (Count)
system.cpu1.commitStats0.committedInstType::SimdMult            0      0.00%     90.93% # Class of committed instruction. (Count)
system.cpu1.commitStats0.committedInstType::SimdMultAcc            0      0.00%     90.93% # Class of committed instruction. (Count)
system.cpu1.commitStats0.committedInstType::SimdMatMultAcc            0      0.00%     90.93% # Class of committed instruction. (Count)
system.cpu1.commitStats0.committedInstType::SimdShift            0      0.00%     90.93% # Class of committed instruction. (Count)
system.cpu1.commitStats0.committedInstType::SimdShiftAcc            0      0.00%     90.93% # Class of committed instruction. (Count)
system.cpu1.commitStats0.committedInstType::SimdDiv            0      0.00%     90.93% # Class of committed instruction. (Count)
system.cpu1.commitStats0.committedInstType::SimdSqrt            0      0.00%     90.93% # Class of committed instruction. (Count)
system.cpu1.commitStats0.committedInstType::SimdFloatAdd            0      0.00%     90.93% # Class of committed instruction. (Count)
system.cpu1.commitStats0.committedInstType::SimdFloatAlu            0      0.00%     90.93% # Class of committed instruction. (Count)
system.cpu1.commitStats0.committedInstType::SimdFloatCmp            0      0.00%     90.93% # Class of committed instruction. (Count)
system.cpu1.commitStats0.committedInstType::SimdFloatCvt            0      0.00%     90.93% # Class of committed instruction. (Count)
system.cpu1.commitStats0.committedInstType::SimdFloatDiv            0      0.00%     90.93% # Class of committed instruction. (Count)
system.cpu1.commitStats0.committedInstType::SimdFloatMisc            0      0.00%     90.93% # Class of committed instruction. (Count)
system.cpu1.commitStats0.committedInstType::SimdFloatMult            0      0.00%     90.93% # Class of committed instruction. (Count)
system.cpu1.commitStats0.committedInstType::SimdFloatMultAcc            0      0.00%     90.93% # Class of committed instruction. (Count)
system.cpu1.commitStats0.committedInstType::SimdFloatMatMultAcc            0      0.00%     90.93% # Class of committed instruction. (Count)
system.cpu1.commitStats0.committedInstType::SimdFloatSqrt            0      0.00%     90.93% # Class of committed instruction. (Count)
system.cpu1.commitStats0.committedInstType::SimdReduceAdd            0      0.00%     90.93% # Class of committed instruction. (Count)
system.cpu1.commitStats0.committedInstType::SimdReduceAlu            0      0.00%     90.93% # Class of committed instruction. (Count)
system.cpu1.commitStats0.committedInstType::SimdReduceCmp            0      0.00%     90.93% # Class of committed instruction. (Count)
system.cpu1.commitStats0.committedInstType::SimdFloatReduceAdd            0      0.00%     90.93% # Class of committed instruction. (Count)
system.cpu1.commitStats0.committedInstType::SimdFloatReduceCmp            0      0.00%     90.93% # Class of committed instruction. (Count)
system.cpu1.commitStats0.committedInstType::SimdAes            0      0.00%     90.93% # Class of committed instruction. (Count)
system.cpu1.commitStats0.committedInstType::SimdAesMix            0      0.00%     90.93% # Class of committed instruction. (Count)
system.cpu1.commitStats0.committedInstType::SimdSha1Hash            0      0.00%     90.93% # Class of committed instruction. (Count)
system.cpu1.commitStats0.committedInstType::SimdSha1Hash2            0      0.00%     90.93% # Class of committed instruction. (Count)
system.cpu1.commitStats0.committedInstType::SimdSha256Hash            0      0.00%     90.93% # Class of committed instruction. (Count)
system.cpu1.commitStats0.committedInstType::SimdSha256Hash2            0      0.00%     90.93% # Class of committed instruction. (Count)
system.cpu1.commitStats0.committedInstType::SimdShaSigma2            0      0.00%     90.93% # Class of committed instruction. (Count)
system.cpu1.commitStats0.committedInstType::SimdShaSigma3            0      0.00%     90.93% # Class of committed instruction. (Count)
system.cpu1.commitStats0.committedInstType::SimdPredAlu            0      0.00%     90.93% # Class of committed instruction. (Count)
system.cpu1.commitStats0.committedInstType::Matrix            0      0.00%     90.93% # Class of committed instruction. (Count)
system.cpu1.commitStats0.committedInstType::MatrixMov            0      0.00%     90.93% # Class of committed instruction. (Count)
system.cpu1.commitStats0.committedInstType::MatrixOP            0      0.00%     90.93% # Class of committed instruction. (Count)
system.cpu1.commitStats0.committedInstType::MemRead        13484      4.80%     95.72% # Class of committed instruction. (Count)
system.cpu1.commitStats0.committedInstType::MemWrite        11372      4.05%     99.77% # Class of committed instruction. (Count)
system.cpu1.commitStats0.committedInstType::FloatMemRead          121      0.04%     99.81% # Class of committed instruction. (Count)
system.cpu1.commitStats0.committedInstType::FloatMemWrite          523      0.19%    100.00% # Class of committed instruction. (Count)
system.cpu1.commitStats0.committedInstType::IprAccess            0      0.00%    100.00% # Class of committed instruction. (Count)
system.cpu1.commitStats0.committedInstType::InstPrefetch            0      0.00%    100.00% # Class of committed instruction. (Count)
system.cpu1.commitStats0.committedInstType::SimdUnitStrideLoad            0      0.00%    100.00% # Class of committed instruction. (Count)
system.cpu1.commitStats0.committedInstType::SimdUnitStrideStore            0      0.00%    100.00% # Class of committed instruction. (Count)
system.cpu1.commitStats0.committedInstType::SimdUnitStrideMaskLoad            0      0.00%    100.00% # Class of committed instruction. (Count)
system.cpu1.commitStats0.committedInstType::SimdUnitStrideMaskStore            0      0.00%    100.00% # Class of committed instruction. (Count)
system.cpu1.commitStats0.committedInstType::SimdStridedLoad            0      0.00%    100.00% # Class of committed instruction. (Count)
system.cpu1.commitStats0.committedInstType::SimdStridedStore            0      0.00%    100.00% # Class of committed instruction. (Count)
system.cpu1.commitStats0.committedInstType::SimdIndexedLoad            0      0.00%    100.00% # Class of committed instruction. (Count)
system.cpu1.commitStats0.committedInstType::SimdIndexedStore            0      0.00%    100.00% # Class of committed instruction. (Count)
system.cpu1.commitStats0.committedInstType::SimdWholeRegisterLoad            0      0.00%    100.00% # Class of committed instruction. (Count)
system.cpu1.commitStats0.committedInstType::SimdWholeRegisterStore            0      0.00%    100.00% # Class of committed instruction. (Count)
system.cpu1.commitStats0.committedInstType::SimdUnitStrideFaultOnlyFirstLoad            0      0.00%    100.00% # Class of committed instruction. (Count)
system.cpu1.commitStats0.committedInstType::SimdUnitStrideSegmentedLoad            0      0.00%    100.00% # Class of committed instruction. (Count)
system.cpu1.commitStats0.committedInstType::SimdUnitStrideSegmentedStore            0      0.00%    100.00% # Class of committed instruction. (Count)
system.cpu1.commitStats0.committedInstType::SimdUnitStrideSegmentedFaultOnlyFirstLoad            0      0.00%    100.00% # Class of committed instruction. (Count)
system.cpu1.commitStats0.committedInstType::SimdStrideSegmentedLoad            0      0.00%    100.00% # Class of committed instruction. (Count)
system.cpu1.commitStats0.committedInstType::SimdStrideSegmentedStore            0      0.00%    100.00% # Class of committed instruction. (Count)
system.cpu1.commitStats0.committedInstType::SimdExt            0      0.00%    100.00% # Class of committed instruction. (Count)
system.cpu1.commitStats0.committedInstType::SimdFloatExt            0      0.00%    100.00% # Class of committed instruction. (Count)
system.cpu1.commitStats0.committedInstType::SimdConfig            0      0.00%    100.00% # Class of committed instruction. (Count)
system.cpu1.commitStats0.committedInstType::total       281009                       # Class of committed instruction. (Count)
system.cpu1.commitStats0.committedControl::IsControl        53747                       # Class of control type instructions committed (Count)
system.cpu1.commitStats0.committedControl::IsDirectControl        53499                       # Class of control type instructions committed (Count)
system.cpu1.commitStats0.committedControl::IsIndirectControl          248                       # Class of control type instructions committed (Count)
system.cpu1.commitStats0.committedControl::IsCondControl        43211                       # Class of control type instructions committed (Count)
system.cpu1.commitStats0.committedControl::IsUncondControl        10536                       # Class of control type instructions committed (Count)
system.cpu1.commitStats0.committedControl::IsCall          180                       # Class of control type instructions committed (Count)
system.cpu1.commitStats0.committedControl::IsReturn          175                       # Class of control type instructions committed (Count)
system.cpu1.exec_context.thread_0.numMatAluAccesses            0                       # Number of matrix alu accesses (Count)
system.cpu1.exec_context.thread_0.numCallsReturns          355                       # Number of times a function call or return occured (Count)
system.cpu1.exec_context.thread_0.numMatInsts            0                       # Number of matrix instructions (Count)
system.cpu1.exec_context.thread_0.numIdleCycles   213.976644                       # Number of idle cycles (Cycle)
system.cpu1.exec_context.thread_0.numBusyCycles 1805714.023356                       # Number of busy cycles (Cycle)
system.cpu1.exec_context.thread_0.notIdleFraction     0.999882                       # Percentage of non-idle cycles (Ratio)
system.cpu1.exec_context.thread_0.idleFraction     0.000118                       # Percentage of idle cycles (Ratio)
system.cpu1.executeStats0.numInsts                  0                       # Number of executed instructions (Count)
system.cpu1.executeStats0.numNop                    0                       # Number of nop insts executed (Count)
system.cpu1.executeStats0.numBranches               0                       # Number of branches executed (Count)
system.cpu1.executeStats0.numLoadInsts              0                       # Number of load instructions executed (Count)
system.cpu1.executeStats0.numStoreInsts         25500                       # Number of stores executed (Count)
system.cpu1.executeStats0.instRate                  0                       # Inst execution rate ((Count/Cycle))
system.cpu1.executeStats0.numFpAluAccesses         1354                       # Number of float alu accesses (Count)
system.cpu1.executeStats0.numFpRegReads          1462                       # Number of times the floating registers were read (Count)
system.cpu1.executeStats0.numFpRegWrites          785                       # Number of times the floating registers were written (Count)
system.cpu1.executeStats0.numIntAluAccesses       280149                       # Number of integer alu accesses (Count)
system.cpu1.executeStats0.numIntRegReads       289024                       # Number of times the integer registers were read (Count)
system.cpu1.executeStats0.numIntRegWrites       171327                       # Number of times the integer registers were written (Count)
system.cpu1.executeStats0.numMemRefs            25500                       # Number of memory refs (Count)
system.cpu1.executeStats0.numMiscRegReads       133209                       # Number of times the Misc registers were read (Count)
system.cpu1.executeStats0.numVecAluAccesses            0                       # Number of vector alu accesses (Count)
system.cpu1.executeStats0.numDiscardedOps            0                       # Number of ops (including micro ops) which were discarded before commit (Count)
system.cpu1.fetchStats0.numInsts               145067                       # Number of instructions fetched (thread level) (Count)
system.cpu1.fetchStats0.numOps                 281009                       # Number of ops (including micro ops) fetched (thread level) (Count)
system.cpu1.fetchStats0.fetchRate            0.080328                       # Number of inst fetches per cycle ((Count/Cycle))
system.cpu1.fetchStats0.numBranches             53747                       # Number of branches fetched (Count)
system.cpu1.fetchStats0.branchRate           0.029761                       # Number of branch fetches per cycle (Ratio)
system.cpu1.fetchStats0.numFetchSuspends            0                       # Number of times Execute suspended instruction fetching (Count)
system.cpu1.interrupts.clk_domain.clock          8000                       # Clock period in ticks (Tick)
system.cpu1.mmu.dtb.rdAccesses                  13609                       # TLB accesses on read requests (Count)
system.cpu1.mmu.dtb.wrAccesses                  11895                       # TLB accesses on write requests (Count)
system.cpu1.mmu.dtb.rdMisses                       17                       # TLB misses on read requests (Count)
system.cpu1.mmu.dtb.wrMisses                        9                       # TLB misses on write requests (Count)
system.cpu1.mmu.dtb.walker.power_state.pwrStateResidencyTicks::UNDEFINED    903071000                       # Cumulative time (in ticks) in various power states (Tick)
system.cpu1.mmu.itb.rdAccesses                      0                       # TLB accesses on read requests (Count)
system.cpu1.mmu.itb.wrAccesses                 210074                       # TLB accesses on write requests (Count)
system.cpu1.mmu.itb.rdMisses                        0                       # TLB misses on read requests (Count)
system.cpu1.mmu.itb.wrMisses                       46                       # TLB misses on write requests (Count)
system.cpu1.mmu.itb.walker.power_state.pwrStateResidencyTicks::UNDEFINED    903071000                       # Cumulative time (in ticks) in various power states (Tick)
system.cpu1.power_state.pwrStateResidencyTicks::ON    903071000                       # Cumulative time (in ticks) in various power states (Tick)
system.cpu1.thread_0.numInsts                       0                       # Number of Instructions committed (Count)
system.cpu1.thread_0.numOps                         0                       # Number of Ops committed (Count)
system.cpu1.thread_0.numMemRefs                     0                       # Number of Memory References (Count)
system.cpu1.workload.numSyscalls                   15                       # Number of system calls (Count)
system.cpu2.numCycles                         1806037                       # Number of cpu cycles simulated (Cycle)
system.cpu2.cpi                             12.450962                       # CPI: cycles per instruction (core level) ((Cycle/Count))
system.cpu2.ipc                              0.080315                       # IPC: instructions per cycle (core level) ((Count/Cycle))
system.cpu2.numWorkItemsStarted                     0                       # Number of work items this cpu started (Count)
system.cpu2.numWorkItemsCompleted                   0                       # Number of work items this cpu completed (Count)
system.cpu2.commitStats0.numInsts              145052                       # Number of instructions committed (thread level) (Count)
system.cpu2.commitStats0.numOps                280974                       # Number of ops (including micro ops) committed (thread level) (Count)
system.cpu2.commitStats0.numInstsNotNOP             0                       # Number of instructions committed excluding NOPs or prefetches (Count)
system.cpu2.commitStats0.numOpsNotNOP               0                       # Number of Ops (including micro ops) Simulated (Count)
system.cpu2.commitStats0.cpi                12.450962                       # CPI: cycles per instruction (thread level) ((Cycle/Count))
system.cpu2.commitStats0.ipc                 0.080315                       # IPC: instructions per cycle (thread level) ((Count/Cycle))
system.cpu2.commitStats0.numMemRefs                 0                       # Number of memory references committed (Count)
system.cpu2.commitStats0.numFpInsts              1354                       # Number of float instructions (Count)
system.cpu2.commitStats0.numIntInsts           280114                       # Number of integer instructions (Count)
system.cpu2.commitStats0.numLoadInsts           13582                       # Number of load instructions (Count)
system.cpu2.commitStats0.numStoreInsts          11895                       # Number of store instructions (Count)
system.cpu2.commitStats0.numVecInsts                0                       # Number of vector instructions (Count)
system.cpu2.commitStats0.committedInstType::No_OpClass          209      0.07%      0.07% # Class of committed instruction. (Count)
system.cpu2.commitStats0.committedInstType::IntAlu       254702     90.65%     90.72% # Class of committed instruction. (Count)
system.cpu2.commitStats0.committedInstType::IntMult           12      0.00%     90.73% # Class of committed instruction. (Count)
system.cpu2.commitStats0.committedInstType::IntDiv           21      0.01%     90.74% # Class of committed instruction. (Count)
system.cpu2.commitStats0.committedInstType::FloatAdd          172      0.06%     90.80% # Class of committed instruction. (Count)
system.cpu2.commitStats0.committedInstType::FloatCmp            0      0.00%     90.80% # Class of committed instruction. (Count)
system.cpu2.commitStats0.committedInstType::FloatCvt            0      0.00%     90.80% # Class of committed instruction. (Count)
system.cpu2.commitStats0.committedInstType::FloatMult            0      0.00%     90.80% # Class of committed instruction. (Count)
system.cpu2.commitStats0.committedInstType::FloatMultAcc            0      0.00%     90.80% # Class of committed instruction. (Count)
system.cpu2.commitStats0.committedInstType::FloatDiv            0      0.00%     90.80% # Class of committed instruction. (Count)
system.cpu2.commitStats0.committedInstType::FloatMisc            0      0.00%     90.80% # Class of committed instruction. (Count)
system.cpu2.commitStats0.committedInstType::FloatSqrt            0      0.00%     90.80% # Class of committed instruction. (Count)
system.cpu2.commitStats0.committedInstType::SimdAdd            8      0.00%     90.80% # Class of committed instruction. (Count)
system.cpu2.commitStats0.committedInstType::SimdAddAcc            0      0.00%     90.80% # Class of committed instruction. (Count)
system.cpu2.commitStats0.committedInstType::SimdAlu           96      0.03%     90.83% # Class of committed instruction. (Count)
system.cpu2.commitStats0.committedInstType::SimdCmp            0      0.00%     90.83% # Class of committed instruction. (Count)
system.cpu2.commitStats0.committedInstType::SimdCvt           48      0.02%     90.85% # Class of committed instruction. (Count)
system.cpu2.commitStats0.committedInstType::SimdMisc          229      0.08%     90.93% # Class of committed instruction. (Count)
system.cpu2.commitStats0.committedInstType::SimdMult            0      0.00%     90.93% # Class of committed instruction. (Count)
system.cpu2.commitStats0.committedInstType::SimdMultAcc            0      0.00%     90.93% # Class of committed instruction. (Count)
system.cpu2.commitStats0.committedInstType::SimdMatMultAcc            0      0.00%     90.93% # Class of committed instruction. (Count)
system.cpu2.commitStats0.committedInstType::SimdShift            0      0.00%     90.93% # Class of committed instruction. (Count)
system.cpu2.commitStats0.committedInstType::SimdShiftAcc            0      0.00%     90.93% # Class of committed instruction. (Count)
system.cpu2.commitStats0.committedInstType::SimdDiv            0      0.00%     90.93% # Class of committed instruction. (Count)
system.cpu2.commitStats0.committedInstType::SimdSqrt            0      0.00%     90.93% # Class of committed instruction. (Count)
system.cpu2.commitStats0.committedInstType::SimdFloatAdd            0      0.00%     90.93% # Class of committed instruction. (Count)
system.cpu2.commitStats0.committedInstType::SimdFloatAlu            0      0.00%     90.93% # Class of committed instruction. (Count)
system.cpu2.commitStats0.committedInstType::SimdFloatCmp            0      0.00%     90.93% # Class of committed instruction. (Count)
system.cpu2.commitStats0.committedInstType::SimdFloatCvt            0      0.00%     90.93% # Class of committed instruction. (Count)
system.cpu2.commitStats0.committedInstType::SimdFloatDiv            0      0.00%     90.93% # Class of committed instruction. (Count)
system.cpu2.commitStats0.committedInstType::SimdFloatMisc            0      0.00%     90.93% # Class of committed instruction. (Count)
system.cpu2.commitStats0.committedInstType::SimdFloatMult            0      0.00%     90.93% # Class of committed instruction. (Count)
system.cpu2.commitStats0.committedInstType::SimdFloatMultAcc            0      0.00%     90.93% # Class of committed instruction. (Count)
system.cpu2.commitStats0.committedInstType::SimdFloatMatMultAcc            0      0.00%     90.93% # Class of committed instruction. (Count)
system.cpu2.commitStats0.committedInstType::SimdFloatSqrt            0      0.00%     90.93% # Class of committed instruction. (Count)
system.cpu2.commitStats0.committedInstType::SimdReduceAdd            0      0.00%     90.93% # Class of committed instruction. (Count)
system.cpu2.commitStats0.committedInstType::SimdReduceAlu            0      0.00%     90.93% # Class of committed instruction. (Count)
system.cpu2.commitStats0.committedInstType::SimdReduceCmp            0      0.00%     90.93% # Class of committed instruction. (Count)
system.cpu2.commitStats0.committedInstType::SimdFloatReduceAdd            0      0.00%     90.93% # Class of committed instruction. (Count)
system.cpu2.commitStats0.committedInstType::SimdFloatReduceCmp            0      0.00%     90.93% # Class of committed instruction. (Count)
system.cpu2.commitStats0.committedInstType::SimdAes            0      0.00%     90.93% # Class of committed instruction. (Count)
system.cpu2.commitStats0.committedInstType::SimdAesMix            0      0.00%     90.93% # Class of committed instruction. (Count)
system.cpu2.commitStats0.committedInstType::SimdSha1Hash            0      0.00%     90.93% # Class of committed instruction. (Count)
system.cpu2.commitStats0.committedInstType::SimdSha1Hash2            0      0.00%     90.93% # Class of committed instruction. (Count)
system.cpu2.commitStats0.committedInstType::SimdSha256Hash            0      0.00%     90.93% # Class of committed instruction. (Count)
system.cpu2.commitStats0.committedInstType::SimdSha256Hash2            0      0.00%     90.93% # Class of committed instruction. (Count)
system.cpu2.commitStats0.committedInstType::SimdShaSigma2            0      0.00%     90.93% # Class of committed instruction. (Count)
system.cpu2.commitStats0.committedInstType::SimdShaSigma3            0      0.00%     90.93% # Class of committed instruction. (Count)
system.cpu2.commitStats0.committedInstType::SimdPredAlu            0      0.00%     90.93% # Class of committed instruction. (Count)
system.cpu2.commitStats0.committedInstType::Matrix            0      0.00%     90.93% # Class of committed instruction. (Count)
system.cpu2.commitStats0.committedInstType::MatrixMov            0      0.00%     90.93% # Class of committed instruction. (Count)
system.cpu2.commitStats0.committedInstType::MatrixOP            0      0.00%     90.93% # Class of committed instruction. (Count)
system.cpu2.commitStats0.committedInstType::MemRead        13461      4.79%     95.72% # Class of committed instruction. (Count)
system.cpu2.commitStats0.committedInstType::MemWrite        11372      4.05%     99.77% # Class of committed instruction. (Count)
system.cpu2.commitStats0.committedInstType::FloatMemRead          121      0.04%     99.81% # Class of committed instruction. (Count)
system.cpu2.commitStats0.committedInstType::FloatMemWrite          523      0.19%    100.00% # Class of committed instruction. (Count)
system.cpu2.commitStats0.committedInstType::IprAccess            0      0.00%    100.00% # Class of committed instruction. (Count)
system.cpu2.commitStats0.committedInstType::InstPrefetch            0      0.00%    100.00% # Class of committed instruction. (Count)
system.cpu2.commitStats0.committedInstType::SimdUnitStrideLoad            0      0.00%    100.00% # Class of committed instruction. (Count)
system.cpu2.commitStats0.committedInstType::SimdUnitStrideStore            0      0.00%    100.00% # Class of committed instruction. (Count)
system.cpu2.commitStats0.committedInstType::SimdUnitStrideMaskLoad            0      0.00%    100.00% # Class of committed instruction. (Count)
system.cpu2.commitStats0.committedInstType::SimdUnitStrideMaskStore            0      0.00%    100.00% # Class of committed instruction. (Count)
system.cpu2.commitStats0.committedInstType::SimdStridedLoad            0      0.00%    100.00% # Class of committed instruction. (Count)
system.cpu2.commitStats0.committedInstType::SimdStridedStore            0      0.00%    100.00% # Class of committed instruction. (Count)
system.cpu2.commitStats0.committedInstType::SimdIndexedLoad            0      0.00%    100.00% # Class of committed instruction. (Count)
system.cpu2.commitStats0.committedInstType::SimdIndexedStore            0      0.00%    100.00% # Class of committed instruction. (Count)
system.cpu2.commitStats0.committedInstType::SimdWholeRegisterLoad            0      0.00%    100.00% # Class of committed instruction. (Count)
system.cpu2.commitStats0.committedInstType::SimdWholeRegisterStore            0      0.00%    100.00% # Class of committed instruction. (Count)
system.cpu2.commitStats0.committedInstType::SimdUnitStrideFaultOnlyFirstLoad            0      0.00%    100.00% # Class of committed instruction. (Count)
system.cpu2.commitStats0.committedInstType::SimdUnitStrideSegmentedLoad            0      0.00%    100.00% # Class of committed instruction. (Count)
system.cpu2.commitStats0.committedInstType::SimdUnitStrideSegmentedStore            0      0.00%    100.00% # Class of committed instruction. (Count)
system.cpu2.commitStats0.committedInstType::SimdUnitStrideSegmentedFaultOnlyFirstLoad            0      0.00%    100.00% # Class of committed instruction. (Count)
system.cpu2.commitStats0.committedInstType::SimdStrideSegmentedLoad            0      0.00%    100.00% # Class of committed instruction. (Count)
system.cpu2.commitStats0.committedInstType::SimdStrideSegmentedStore            0      0.00%    100.00% # Class of committed instruction. (Count)
system.cpu2.commitStats0.committedInstType::SimdExt            0      0.00%    100.00% # Class of committed instruction. (Count)
system.cpu2.commitStats0.committedInstType::SimdFloatExt            0      0.00%    100.00% # Class of committed instruction. (Count)
system.cpu2.commitStats0.committedInstType::SimdConfig            0      0.00%    100.00% # Class of committed instruction. (Count)
system.cpu2.commitStats0.committedInstType::total       280974                       # Class of committed instruction. (Count)
system.cpu2.commitStats0.committedControl::IsControl        53742                       # Class of control type instructions committed (Count)
system.cpu2.commitStats0.committedControl::IsDirectControl        53494                       # Class of control type instructions committed (Count)
system.cpu2.commitStats0.committedControl::IsIndirectControl          248                       # Class of control type instructions committed (Count)
system.cpu2.commitStats0.committedControl::IsCondControl        43206                       # Class of control type instructions committed (Count)
system.cpu2.commitStats0.committedControl::IsUncondControl        10536                       # Class of control type instructions committed (Count)
system.cpu2.commitStats0.committedControl::IsCall          180                       # Class of control type instructions committed (Count)
system.cpu2.commitStats0.committedControl::IsReturn          175                       # Class of control type instructions committed (Count)
system.cpu2.exec_context.thread_0.numMatAluAccesses            0                       # Number of matrix alu accesses (Count)
system.cpu2.exec_context.thread_0.numCallsReturns          355                       # Number of times a function call or return occured (Count)
system.cpu2.exec_context.thread_0.numMatInsts            0                       # Number of matrix instructions (Count)
system.cpu2.exec_context.thread_0.numIdleCycles   104.995896                       # Number of idle cycles (Cycle)
system.cpu2.exec_context.thread_0.numBusyCycles 1805932.004104                       # Number of busy cycles (Cycle)
system.cpu2.exec_context.thread_0.notIdleFraction     0.999942                       # Percentage of non-idle cycles (Ratio)
system.cpu2.exec_context.thread_0.idleFraction     0.000058                       # Percentage of idle cycles (Ratio)
system.cpu2.executeStats0.numInsts                  0                       # Number of executed instructions (Count)
system.cpu2.executeStats0.numNop                    0                       # Number of nop insts executed (Count)
system.cpu2.executeStats0.numBranches               0                       # Number of branches executed (Count)
system.cpu2.executeStats0.numLoadInsts              0                       # Number of load instructions executed (Count)
system.cpu2.executeStats0.numStoreInsts         25477                       # Number of stores executed (Count)
system.cpu2.executeStats0.instRate                  0                       # Inst execution rate ((Count/Cycle))
system.cpu2.executeStats0.numFpAluAccesses         1354                       # Number of float alu accesses (Count)
system.cpu2.executeStats0.numFpRegReads          1462                       # Number of times the floating registers were read (Count)
system.cpu2.executeStats0.numFpRegWrites          785                       # Number of times the floating registers were written (Count)
system.cpu2.executeStats0.numIntAluAccesses       280114                       # Number of integer alu accesses (Count)
system.cpu2.executeStats0.numIntRegReads       288981                       # Number of times the integer registers were read (Count)
system.cpu2.executeStats0.numIntRegWrites       171302                       # Number of times the integer registers were written (Count)
system.cpu2.executeStats0.numMemRefs            25477                       # Number of memory refs (Count)
system.cpu2.executeStats0.numMiscRegReads       133176                       # Number of times the Misc registers were read (Count)
system.cpu2.executeStats0.numVecAluAccesses            0                       # Number of vector alu accesses (Count)
system.cpu2.executeStats0.numDiscardedOps            0                       # Number of ops (including micro ops) which were discarded before commit (Count)
system.cpu2.fetchStats0.numInsts               145052                       # Number of instructions fetched (thread level) (Count)
system.cpu2.fetchStats0.numOps                 280974                       # Number of ops (including micro ops) fetched (thread level) (Count)
system.cpu2.fetchStats0.fetchRate            0.080315                       # Number of inst fetches per cycle ((Count/Cycle))
system.cpu2.fetchStats0.numBranches             53742                       # Number of branches fetched (Count)
system.cpu2.fetchStats0.branchRate           0.029757                       # Number of branch fetches per cycle (Ratio)
system.cpu2.fetchStats0.numFetchSuspends            0                       # Number of times Execute suspended instruction fetching (Count)
system.cpu2.interrupts.clk_domain.clock          8000                       # Clock period in ticks (Tick)
system.cpu2.mmu.dtb.rdAccesses                  13586                       # TLB accesses on read requests (Count)
system.cpu2.mmu.dtb.wrAccesses                  11895                       # TLB accesses on write requests (Count)
system.cpu2.mmu.dtb.rdMisses                       17                       # TLB misses on read requests (Count)
system.cpu2.mmu.dtb.wrMisses                        9                       # TLB misses on write requests (Count)
system.cpu2.mmu.dtb.walker.power_state.pwrStateResidencyTicks::UNDEFINED    903071000                       # Cumulative time (in ticks) in various power states (Tick)
system.cpu2.mmu.itb.rdAccesses                      0                       # TLB accesses on read requests (Count)
system.cpu2.mmu.itb.wrAccesses                 210054                       # TLB accesses on write requests (Count)
system.cpu2.mmu.itb.rdMisses                        0                       # TLB misses on read requests (Count)
system.cpu2.mmu.itb.wrMisses                       46                       # TLB misses on write requests (Count)
system.cpu2.mmu.itb.walker.power_state.pwrStateResidencyTicks::UNDEFINED    903071000                       # Cumulative time (in ticks) in various power states (Tick)
system.cpu2.power_state.pwrStateResidencyTicks::ON    903071000                       # Cumulative time (in ticks) in various power states (Tick)
system.cpu2.thread_0.numInsts                       0                       # Number of Instructions committed (Count)
system.cpu2.thread_0.numOps                         0                       # Number of Ops committed (Count)
system.cpu2.thread_0.numMemRefs                     0                       # Number of Memory References (Count)
system.cpu2.workload.numSyscalls                   15                       # Number of system calls (Count)
system.cpu3.numCycles                         1805938                       # Number of cpu cycles simulated (Cycle)
system.cpu3.cpi                             12.455174                       # CPI: cycles per instruction (core level) ((Cycle/Count))
system.cpu3.ipc                              0.080288                       # IPC: instructions per cycle (core level) ((Count/Cycle))
system.cpu3.numWorkItemsStarted                     0                       # Number of work items this cpu started (Count)
system.cpu3.numWorkItemsCompleted                   0                       # Number of work items this cpu completed (Count)
system.cpu3.commitStats0.numInsts              144995                       # Number of instructions committed (thread level) (Count)
system.cpu3.commitStats0.numOps                280843                       # Number of ops (including micro ops) committed (thread level) (Count)
system.cpu3.commitStats0.numInstsNotNOP             0                       # Number of instructions committed excluding NOPs or prefetches (Count)
system.cpu3.commitStats0.numOpsNotNOP               0                       # Number of Ops (including micro ops) Simulated (Count)
system.cpu3.commitStats0.cpi                12.455174                       # CPI: cycles per instruction (thread level) ((Cycle/Count))
system.cpu3.commitStats0.ipc                 0.080288                       # IPC: instructions per cycle (thread level) ((Count/Cycle))
system.cpu3.commitStats0.numMemRefs                 0                       # Number of memory references committed (Count)
system.cpu3.commitStats0.numFpInsts              1354                       # Number of float instructions (Count)
system.cpu3.commitStats0.numIntInsts           279982                       # Number of integer instructions (Count)
system.cpu3.commitStats0.numLoadInsts           13589                       # Number of load instructions (Count)
system.cpu3.commitStats0.numStoreInsts          11893                       # Number of store instructions (Count)
system.cpu3.commitStats0.numVecInsts                0                       # Number of vector instructions (Count)
system.cpu3.commitStats0.committedInstType::No_OpClass          210      0.07%      0.07% # Class of committed instruction. (Count)
system.cpu3.commitStats0.committedInstType::IntAlu       254565     90.64%     90.72% # Class of committed instruction. (Count)
system.cpu3.commitStats0.committedInstType::IntMult           12      0.00%     90.72% # Class of committed instruction. (Count)
system.cpu3.commitStats0.committedInstType::IntDiv           21      0.01%     90.73% # Class of committed instruction. (Count)
system.cpu3.commitStats0.committedInstType::FloatAdd          172      0.06%     90.79% # Class of committed instruction. (Count)
system.cpu3.commitStats0.committedInstType::FloatCmp            0      0.00%     90.79% # Class of committed instruction. (Count)
system.cpu3.commitStats0.committedInstType::FloatCvt            0      0.00%     90.79% # Class of committed instruction. (Count)
system.cpu3.commitStats0.committedInstType::FloatMult            0      0.00%     90.79% # Class of committed instruction. (Count)
system.cpu3.commitStats0.committedInstType::FloatMultAcc            0      0.00%     90.79% # Class of committed instruction. (Count)
system.cpu3.commitStats0.committedInstType::FloatDiv            0      0.00%     90.79% # Class of committed instruction. (Count)
system.cpu3.commitStats0.committedInstType::FloatMisc            0      0.00%     90.79% # Class of committed instruction. (Count)
system.cpu3.commitStats0.committedInstType::FloatSqrt            0      0.00%     90.79% # Class of committed instruction. (Count)
system.cpu3.commitStats0.committedInstType::SimdAdd            8      0.00%     90.79% # Class of committed instruction. (Count)
system.cpu3.commitStats0.committedInstType::SimdAddAcc            0      0.00%     90.79% # Class of committed instruction. (Count)
system.cpu3.commitStats0.committedInstType::SimdAlu           96      0.03%     90.83% # Class of committed instruction. (Count)
system.cpu3.commitStats0.committedInstType::SimdCmp            0      0.00%     90.83% # Class of committed instruction. (Count)
system.cpu3.commitStats0.committedInstType::SimdCvt           48      0.02%     90.85% # Class of committed instruction. (Count)
system.cpu3.commitStats0.committedInstType::SimdMisc          229      0.08%     90.93% # Class of committed instruction. (Count)
system.cpu3.commitStats0.committedInstType::SimdMult            0      0.00%     90.93% # Class of committed instruction. (Count)
system.cpu3.commitStats0.committedInstType::SimdMultAcc            0      0.00%     90.93% # Class of committed instruction. (Count)
system.cpu3.commitStats0.committedInstType::SimdMatMultAcc            0      0.00%     90.93% # Class of committed instruction. (Count)
system.cpu3.commitStats0.committedInstType::SimdShift            0      0.00%     90.93% # Class of committed instruction. (Count)
system.cpu3.commitStats0.committedInstType::SimdShiftAcc            0      0.00%     90.93% # Class of committed instruction. (Count)
system.cpu3.commitStats0.committedInstType::SimdDiv            0      0.00%     90.93% # Class of committed instruction. (Count)
system.cpu3.commitStats0.committedInstType::SimdSqrt            0      0.00%     90.93% # Class of committed instruction. (Count)
system.cpu3.commitStats0.committedInstType::SimdFloatAdd            0      0.00%     90.93% # Class of committed instruction. (Count)
system.cpu3.commitStats0.committedInstType::SimdFloatAlu            0      0.00%     90.93% # Class of committed instruction. (Count)
system.cpu3.commitStats0.committedInstType::SimdFloatCmp            0      0.00%     90.93% # Class of committed instruction. (Count)
system.cpu3.commitStats0.committedInstType::SimdFloatCvt            0      0.00%     90.93% # Class of committed instruction. (Count)
system.cpu3.commitStats0.committedInstType::SimdFloatDiv            0      0.00%     90.93% # Class of committed instruction. (Count)
system.cpu3.commitStats0.committedInstType::SimdFloatMisc            0      0.00%     90.93% # Class of committed instruction. (Count)
system.cpu3.commitStats0.committedInstType::SimdFloatMult            0      0.00%     90.93% # Class of committed instruction. (Count)
system.cpu3.commitStats0.committedInstType::SimdFloatMultAcc            0      0.00%     90.93% # Class of committed instruction. (Count)
system.cpu3.commitStats0.committedInstType::SimdFloatMatMultAcc            0      0.00%     90.93% # Class of committed instruction. (Count)
system.cpu3.commitStats0.committedInstType::SimdFloatSqrt            0      0.00%     90.93% # Class of committed instruction. (Count)
system.cpu3.commitStats0.committedInstType::SimdReduceAdd            0      0.00%     90.93% # Class of committed instruction. (Count)
system.cpu3.commitStats0.committedInstType::SimdReduceAlu            0      0.00%     90.93% # Class of committed instruction. (Count)
system.cpu3.commitStats0.committedInstType::SimdReduceCmp            0      0.00%     90.93% # Class of committed instruction. (Count)
system.cpu3.commitStats0.committedInstType::SimdFloatReduceAdd            0      0.00%     90.93% # Class of committed instruction. (Count)
system.cpu3.commitStats0.committedInstType::SimdFloatReduceCmp            0      0.00%     90.93% # Class of committed instruction. (Count)
system.cpu3.commitStats0.committedInstType::SimdAes            0      0.00%     90.93% # Class of committed instruction. (Count)
system.cpu3.commitStats0.committedInstType::SimdAesMix            0      0.00%     90.93% # Class of committed instruction. (Count)
system.cpu3.commitStats0.committedInstType::SimdSha1Hash            0      0.00%     90.93% # Class of committed instruction. (Count)
system.cpu3.commitStats0.committedInstType::SimdSha1Hash2            0      0.00%     90.93% # Class of committed instruction. (Count)
system.cpu3.commitStats0.committedInstType::SimdSha256Hash            0      0.00%     90.93% # Class of committed instruction. (Count)
system.cpu3.commitStats0.committedInstType::SimdSha256Hash2            0      0.00%     90.93% # Class of committed instruction. (Count)
system.cpu3.commitStats0.committedInstType::SimdShaSigma2            0      0.00%     90.93% # Class of committed instruction. (Count)
system.cpu3.commitStats0.committedInstType::SimdShaSigma3            0      0.00%     90.93% # Class of committed instruction. (Count)
system.cpu3.commitStats0.committedInstType::SimdPredAlu            0      0.00%     90.93% # Class of committed instruction. (Count)
system.cpu3.commitStats0.committedInstType::Matrix            0      0.00%     90.93% # Class of committed instruction. (Count)
system.cpu3.commitStats0.committedInstType::MatrixMov            0      0.00%     90.93% # Class of committed instruction. (Count)
system.cpu3.commitStats0.committedInstType::MatrixOP            0      0.00%     90.93% # Class of committed instruction. (Count)
system.cpu3.commitStats0.committedInstType::MemRead        13468      4.80%     95.72% # Class of committed instruction. (Count)
system.cpu3.commitStats0.committedInstType::MemWrite        11370      4.05%     99.77% # Class of committed instruction. (Count)
system.cpu3.commitStats0.committedInstType::FloatMemRead          121      0.04%     99.81% # Class of committed instruction. (Count)
system.cpu3.commitStats0.committedInstType::FloatMemWrite          523      0.19%    100.00% # Class of committed instruction. (Count)
system.cpu3.commitStats0.committedInstType::IprAccess            0      0.00%    100.00% # Class of committed instruction. (Count)
system.cpu3.commitStats0.committedInstType::InstPrefetch            0      0.00%    100.00% # Class of committed instruction. (Count)
system.cpu3.commitStats0.committedInstType::SimdUnitStrideLoad            0      0.00%    100.00% # Class of committed instruction. (Count)
system.cpu3.commitStats0.committedInstType::SimdUnitStrideStore            0      0.00%    100.00% # Class of committed instruction. (Count)
system.cpu3.commitStats0.committedInstType::SimdUnitStrideMaskLoad            0      0.00%    100.00% # Class of committed instruction. (Count)
system.cpu3.commitStats0.committedInstType::SimdUnitStrideMaskStore            0      0.00%    100.00% # Class of committed instruction. (Count)
system.cpu3.commitStats0.committedInstType::SimdStridedLoad            0      0.00%    100.00% # Class of committed instruction. (Count)
system.cpu3.commitStats0.committedInstType::SimdStridedStore            0      0.00%    100.00% # Class of committed instruction. (Count)
system.cpu3.commitStats0.committedInstType::SimdIndexedLoad            0      0.00%    100.00% # Class of committed instruction. (Count)
system.cpu3.commitStats0.committedInstType::SimdIndexedStore            0      0.00%    100.00% # Class of committed instruction. (Count)
system.cpu3.commitStats0.committedInstType::SimdWholeRegisterLoad            0      0.00%    100.00% # Class of committed instruction. (Count)
system.cpu3.commitStats0.committedInstType::SimdWholeRegisterStore            0      0.00%    100.00% # Class of committed instruction. (Count)
system.cpu3.commitStats0.committedInstType::SimdUnitStrideFaultOnlyFirstLoad            0      0.00%    100.00% # Class of committed instruction. (Count)
system.cpu3.commitStats0.committedInstType::SimdUnitStrideSegmentedLoad            0      0.00%    100.00% # Class of committed instruction. (Count)
system.cpu3.commitStats0.committedInstType::SimdUnitStrideSegmentedStore            0      0.00%    100.00% # Class of committed instruction. (Count)
system.cpu3.commitStats0.committedInstType::SimdUnitStrideSegmentedFaultOnlyFirstLoad            0      0.00%    100.00% # Class of committed instruction. (Count)
system.cpu3.commitStats0.committedInstType::SimdStrideSegmentedLoad            0      0.00%    100.00% # Class of committed instruction. (Count)
system.cpu3.commitStats0.committedInstType::SimdStrideSegmentedStore            0      0.00%    100.00% # Class of committed instruction. (Count)
system.cpu3.commitStats0.committedInstType::SimdExt            0      0.00%    100.00% # Class of committed instruction. (Count)
system.cpu3.commitStats0.committedInstType::SimdFloatExt            0      0.00%    100.00% # Class of committed instruction. (Count)
system.cpu3.commitStats0.committedInstType::SimdConfig            0      0.00%    100.00% # Class of committed instruction. (Count)
system.cpu3.commitStats0.committedInstType::total       280843                       # Class of committed instruction. (Count)
system.cpu3.commitStats0.committedControl::IsControl        53724                       # Class of control type instructions committed (Count)
system.cpu3.commitStats0.committedControl::IsDirectControl        53476                       # Class of control type instructions committed (Count)
system.cpu3.commitStats0.committedControl::IsIndirectControl          248                       # Class of control type instructions committed (Count)
system.cpu3.commitStats0.committedControl::IsCondControl        43188                       # Class of control type instructions committed (Count)
system.cpu3.commitStats0.committedControl::IsUncondControl        10536                       # Class of control type instructions committed (Count)
system.cpu3.commitStats0.committedControl::IsCall          180                       # Class of control type instructions committed (Count)
system.cpu3.commitStats0.committedControl::IsReturn          175                       # Class of control type instructions committed (Count)
system.cpu3.exec_context.thread_0.numMatAluAccesses            0                       # Number of matrix alu accesses (Count)
system.cpu3.exec_context.thread_0.numCallsReturns          355                       # Number of times a function call or return occured (Count)
system.cpu3.exec_context.thread_0.numMatInsts            0                       # Number of matrix instructions (Count)
system.cpu3.exec_context.thread_0.numIdleCycles   203.978958                       # Number of idle cycles (Cycle)
system.cpu3.exec_context.thread_0.numBusyCycles 1805734.021042                       # Number of busy cycles (Cycle)
system.cpu3.exec_context.thread_0.notIdleFraction     0.999887                       # Percentage of non-idle cycles (Ratio)
system.cpu3.exec_context.thread_0.idleFraction     0.000113                       # Percentage of idle cycles (Ratio)
system.cpu3.executeStats0.numInsts                  0                       # Number of executed instructions (Count)
system.cpu3.executeStats0.numNop                    0                       # Number of nop insts executed (Count)
system.cpu3.executeStats0.numBranches               0                       # Number of branches executed (Count)
system.cpu3.executeStats0.numLoadInsts              0                       # Number of load instructions executed (Count)
system.cpu3.executeStats0.numStoreInsts         25482                       # Number of stores executed (Count)
system.cpu3.executeStats0.instRate                  0                       # Inst execution rate ((Count/Cycle))
system.cpu3.executeStats0.numFpAluAccesses         1354                       # Number of float alu accesses (Count)
system.cpu3.executeStats0.numFpRegReads          1462                       # Number of times the floating registers were read (Count)
system.cpu3.executeStats0.numFpRegWrites          785                       # Number of times the floating registers were written (Count)
system.cpu3.executeStats0.numIntAluAccesses       279982                       # Number of integer alu accesses (Count)
system.cpu3.executeStats0.numIntRegReads       288912                       # Number of times the integer registers were read (Count)
system.cpu3.executeStats0.numIntRegWrites       171208                       # Number of times the integer registers were written (Count)
system.cpu3.executeStats0.numMemRefs            25482                       # Number of memory refs (Count)
system.cpu3.executeStats0.numMiscRegReads       133145                       # Number of times the Misc registers were read (Count)
system.cpu3.executeStats0.numVecAluAccesses            0                       # Number of vector alu accesses (Count)
system.cpu3.executeStats0.numDiscardedOps            0                       # Number of ops (including micro ops) which were discarded before commit (Count)
system.cpu3.fetchStats0.numInsts               144995                       # Number of instructions fetched (thread level) (Count)
system.cpu3.fetchStats0.numOps                 280843                       # Number of ops (including micro ops) fetched (thread level) (Count)
system.cpu3.fetchStats0.fetchRate            0.080288                       # Number of inst fetches per cycle ((Count/Cycle))
system.cpu3.fetchStats0.numBranches             53724                       # Number of branches fetched (Count)
system.cpu3.fetchStats0.branchRate           0.029749                       # Number of branch fetches per cycle (Ratio)
system.cpu3.fetchStats0.numFetchSuspends            0                       # Number of times Execute suspended instruction fetching (Count)
system.cpu3.interrupts.clk_domain.clock          8000                       # Clock period in ticks (Tick)
system.cpu3.mmu.dtb.rdAccesses                  13593                       # TLB accesses on read requests (Count)
system.cpu3.mmu.dtb.wrAccesses                  11893                       # TLB accesses on write requests (Count)
system.cpu3.mmu.dtb.rdMisses                       17                       # TLB misses on read requests (Count)
system.cpu3.mmu.dtb.wrMisses                        9                       # TLB misses on write requests (Count)
system.cpu3.mmu.dtb.walker.power_state.pwrStateResidencyTicks::UNDEFINED    903071000                       # Cumulative time (in ticks) in various power states (Tick)
system.cpu3.mmu.itb.rdAccesses                      0                       # TLB accesses on read requests (Count)
system.cpu3.mmu.itb.wrAccesses                 209978                       # TLB accesses on write requests (Count)
system.cpu3.mmu.itb.rdMisses                        0                       # TLB misses on read requests (Count)
system.cpu3.mmu.itb.wrMisses                       46                       # TLB misses on write requests (Count)
system.cpu3.mmu.itb.walker.power_state.pwrStateResidencyTicks::UNDEFINED    903071000                       # Cumulative time (in ticks) in various power states (Tick)
system.cpu3.power_state.pwrStateResidencyTicks::ON    903071000                       # Cumulative time (in ticks) in various power states (Tick)
system.cpu3.thread_0.numInsts                       0                       # Number of Instructions committed (Count)
system.cpu3.thread_0.numOps                         0                       # Number of Ops committed (Count)
system.cpu3.thread_0.numMemRefs                     0                       # Number of Memory References (Count)
system.cpu3.workload.numSyscalls                   15                       # Number of system calls (Count)
system.cpu_clk_domain.clock                       500                       # Clock period in ticks (Tick)
system.cpu_voltage_domain.voltage                   1                       # Voltage in Volts (Volt)
system.mem_ctrls.avgPriority_ruby.dir_cntrl0::samples      3271.00                       # Average QoS priority value for accepted requests (Count)
system.mem_ctrls.priorityMinLatency      0.000000018750                       # per QoS priority minimum request to response latency (Second)
system.mem_ctrls.priorityMaxLatency      0.000000656250                       # per QoS priority maximum request to response latency (Second)
system.mem_ctrls.numReadWriteTurnArounds            0                       # Number of turnarounds from READ to WRITE (Count)
system.mem_ctrls.numWriteReadTurnArounds            0                       # Number of turnarounds from WRITE to READ (Count)
system.mem_ctrls.numStayReadState                6543                       # Number of times bus staying in READ state (Count)
[...]
system.ruby.network.routers6.port_buffers5.m_buf_msgs     0.006074                       # Average number of messages in buffer ((Count/Tick))
system.ruby.network.routers6.port_buffers6.m_msg_count         6689                       # Number of messages passed the buffer (Count)
system.ruby.network.routers6.port_buffers6.m_buf_msgs     0.003703                       # Average number of messages in buffer ((Count/Tick))
system.ruby.network.routers6.port_buffers8.m_msg_count        10974                       # Number of messages passed the buffer (Count)
system.ruby.network.routers6.port_buffers8.m_buf_msgs     0.006076                       # Average number of messages in buffer ((Count/Tick))
system.ruby.network.routers6.port_buffers9.m_msg_count         6688                       # Number of messages passed the buffer (Count)
system.ruby.network.routers6.port_buffers9.m_buf_msgs     0.003703                       # Average number of messages in buffer ((Count/Tick))
system.ruby.network.routers6.power_state.pwrStateResidencyTicks::UNDEFINED    903071000                       # Cumulative time (in ticks) in various power states (Tick)
system.ruby.network.routers6.throttle00.acc_link_utilization        39198                       # Accumulated link utilization system.ruby.network.int_links06 (Count)
system.ruby.network.routers6.throttle00.link_utilization     2.170261                       # Average link utilization (Ratio)
system.ruby.network.routers6.throttle00.total_msg_count        17764                       # Total number of messages forwarded by this switch (Count)
system.ruby.network.routers6.throttle00.total_msg_bytes       627168                       # Total number of bytes forwarded by this switch (Byte)
system.ruby.network.routers6.throttle00.total_data_msg_bytes       485056                       # Total number of data bytes forwarded by this switch (Byte)
system.ruby.network.routers6.throttle00.total_msg_wait_time         2000                       # Total time spend forwarding messages (Tick)
system.ruby.network.routers6.throttle00.total_stall_cy            0                       # Total time spent blocked on any output link (Cycle)
system.ruby.network.routers6.throttle00.total_bw_sat_cy        30316                       # Total time bandwidth was saturated on any output link (Cycle)
system.ruby.network.routers6.throttle00.avg_msg_wait_time     0.112587                       # Average time a message took to be forwarded (Ratio)
system.ruby.network.routers6.throttle00.avg_bandwidth         0.65                       # Average bandwidth (GB/s) (Ratio)
system.ruby.network.routers6.throttle00.avg_useful_bandwidth         0.50                       # Average useful (only data) bandwidth (GB/s) (Ratio)
system.ruby.network.routers6.throttle00.msg_count.Response_Data::2          884                       (Unspecified)
system.ruby.network.routers6.throttle00.msg_bytes.Response_Data::2        63648                       (Unspecified)
system.ruby.network.routers6.throttle00.msg_count.ResponseL2hit_Data::2           12                       (Unspecified)
system.ruby.network.routers6.throttle00.msg_bytes.ResponseL2hit_Data::2          864                       (Unspecified)
system.ruby.network.routers6.throttle00.msg_count.ResponseLocal_Data::2         6683                       (Unspecified)
system.ruby.network.routers6.throttle00.msg_bytes.ResponseLocal_Data::2       481176                       (Unspecified)
system.ruby.network.routers6.throttle00.msg_count.Response_Control::2         3355                       (Unspecified)
system.ruby.network.routers6.throttle00.msg_bytes.Response_Control::2        26840                       (Unspecified)
system.ruby.network.routers6.throttle00.msg_count.Writeback_Control::2          143                       (Unspecified)
system.ruby.network.routers6.throttle00.msg_bytes.Writeback_Control::2         1144                       (Unspecified)
system.ruby.network.routers6.throttle00.msg_count.Forwarded_Control::0         6684                       (Unspecified)
system.ruby.network.routers6.throttle00.msg_bytes.Forwarded_Control::0        53472                       (Unspecified)
system.ruby.network.routers6.throttle00.msg_count.Invalidate_Control::0            3                       (Unspecified)
system.ruby.network.routers6.throttle00.msg_bytes.Invalidate_Control::0           24                       (Unspecified)
system.ruby.network.routers6.throttle01.acc_link_utilization 38788.500000                       # Accumulated link utilization system.ruby.network.int_links07 (Count)
system.ruby.network.routers6.throttle01.link_utilization     2.147589                       # Average link utilization (Ratio)
system.ruby.network.routers6.throttle01.total_msg_count        17657                       # Total number of messages forwarded by this switch (Count)
system.ruby.network.routers6.throttle01.total_msg_bytes       620616                       # Total number of bytes forwarded by this switch (Byte)
system.ruby.network.routers6.throttle01.total_data_msg_bytes       479360                       # Total number of data bytes forwarded by this switch (Byte)
system.ruby.network.routers6.throttle01.total_msg_wait_time            0                       # Total time spend forwarding messages (Tick)
system.ruby.network.routers6.throttle01.total_stall_cy            0                       # Total time spent blocked on any output link (Cycle)
system.ruby.network.routers6.throttle01.total_bw_sat_cy        29960                       # Total time bandwidth was saturated on any output link (Cycle)
system.ruby.network.routers6.throttle01.avg_msg_wait_time            0                       # Average time a message took to be forwarded (Ratio)
system.ruby.network.routers6.throttle01.avg_bandwidth         0.64                       # Average bandwidth (GB/s) (Ratio)
system.ruby.network.routers6.throttle01.avg_useful_bandwidth         0.49                       # Average useful (only data) bandwidth (GB/s) (Ratio)
system.ruby.network.routers6.throttle01.msg_count.Response_Data::2          796                       (Unspecified)
system.ruby.network.routers6.throttle01.msg_bytes.Response_Data::2        57312                       (Unspecified)
system.ruby.network.routers6.throttle01.msg_count.ResponseL2hit_Data::2           12                       (Unspecified)
system.ruby.network.routers6.throttle01.msg_bytes.ResponseL2hit_Data::2          864                       (Unspecified)
system.ruby.network.routers6.throttle01.msg_count.ResponseLocal_Data::2         6682                       (Unspecified)
system.ruby.network.routers6.throttle01.msg_bytes.ResponseLocal_Data::2       481104                       (Unspecified)
system.ruby.network.routers6.throttle01.msg_count.Response_Control::2         3340                       (Unspecified)
system.ruby.network.routers6.throttle01.msg_bytes.Response_Control::2        26720                       (Unspecified)
system.ruby.network.routers6.throttle01.msg_count.Writeback_Control::2          140                       (Unspecified)
system.ruby.network.routers6.throttle01.msg_bytes.Writeback_Control::2         1120                       (Unspecified)
system.ruby.network.routers6.throttle01.msg_count.Forwarded_Control::0         6681                       (Unspecified)
system.ruby.network.routers6.throttle01.msg_bytes.Forwarded_Control::0        53448                       (Unspecified)
system.ruby.network.routers6.throttle01.msg_count.Invalidate_Control::0            6                       (Unspecified)
system.ruby.network.routers6.throttle01.msg_bytes.Invalidate_Control::0           48                       (Unspecified)
system.ruby.network.routers6.throttle02.acc_link_utilization 38791.500000                       # Accumulated link utilization system.ruby.network.int_links08 (Count)
system.ruby.network.routers6.throttle02.link_utilization     2.147755                       # Average link utilization (Ratio)
system.ruby.network.routers6.throttle02.total_msg_count        17663                       # Total number of messages forwarded by this switch (Count)
system.ruby.network.routers6.throttle02.total_msg_bytes       620664                       # Total number of bytes forwarded by this switch (Byte)
system.ruby.network.routers6.throttle02.total_data_msg_bytes       479360                       # Total number of data bytes forwarded by this switch (Byte)
system.ruby.network.routers6.throttle02.total_msg_wait_time            0                       # Total time spend forwarding messages (Tick)
system.ruby.network.routers6.throttle02.total_stall_cy            0                       # Total time spent blocked on any output link (Cycle)
system.ruby.network.routers6.throttle02.total_bw_sat_cy        29960                       # Total time bandwidth was saturated on any output link (Cycle)
system.ruby.network.routers6.throttle02.avg_msg_wait_time            0                       # Average time a message took to be forwarded (Ratio)
system.ruby.network.routers6.throttle02.avg_bandwidth         0.64                       # Average bandwidth (GB/s) (Ratio)
system.ruby.network.routers6.throttle02.avg_useful_bandwidth         0.49                       # Average useful (only data) bandwidth (GB/s) (Ratio)
system.ruby.network.routers6.throttle02.msg_count.Response_Data::2          796                       (Unspecified)
system.ruby.network.routers6.throttle02.msg_bytes.Response_Data::2        57312                       (Unspecified)
system.ruby.network.routers6.throttle02.msg_count.ResponseL2hit_Data::2           12                       (Unspecified)
system.ruby.network.routers6.throttle02.msg_bytes.ResponseL2hit_Data::2          864                       (Unspecified)
system.ruby.network.routers6.throttle02.msg_count.ResponseLocal_Data::2         6682                       (Unspecified)
system.ruby.network.routers6.throttle02.msg_bytes.ResponseLocal_Data::2       481104                       (Unspecified)
system.ruby.network.routers6.throttle02.msg_count.Response_Control::2         3344                       (Unspecified)
system.ruby.network.routers6.throttle02.msg_bytes.Response_Control::2        26752                       (Unspecified)
system.ruby.network.routers6.throttle02.msg_count.Writeback_Control::2          140                       (Unspecified)
system.ruby.network.routers6.throttle02.msg_bytes.Writeback_Control::2         1120                       (Unspecified)
system.ruby.network.routers6.throttle02.msg_count.Forwarded_Control::0         6685                       (Unspecified)
system.ruby.network.routers6.throttle02.msg_bytes.Forwarded_Control::0        53480                       (Unspecified)
system.ruby.network.routers6.throttle02.msg_count.Invalidate_Control::0            4                       (Unspecified)
system.ruby.network.routers6.throttle02.msg_bytes.Invalidate_Control::0           32                       (Unspecified)
system.ruby.network.routers6.throttle03.acc_link_utilization        38787                       # Accumulated link utilization system.ruby.network.int_links09 (Count)
system.ruby.network.routers6.throttle03.link_utilization     2.147506                       # Average link utilization (Ratio)
system.ruby.network.routers6.throttle03.total_msg_count        17654                       # Total number of messages forwarded by this switch (Count)
system.ruby.network.routers6.throttle03.total_msg_bytes       620592                       # Total number of bytes forwarded by this switch (Byte)
system.ruby.network.routers6.throttle03.total_data_msg_bytes       479360                       # Total number of data bytes forwarded by this switch (Byte)
system.ruby.network.routers6.throttle03.total_msg_wait_time            0                       # Total time spend forwarding messages (Tick)
system.ruby.network.routers6.throttle03.total_stall_cy            0                       # Total time spent blocked on any output link (Cycle)
system.ruby.network.routers6.throttle03.total_bw_sat_cy        29960                       # Total time bandwidth was saturated on any output link (Cycle)
system.ruby.network.routers6.throttle03.avg_msg_wait_time            0                       # Average time a message took to be forwarded (Ratio)
system.ruby.network.routers6.throttle03.avg_bandwidth         0.64                       # Average bandwidth (GB/s) (Ratio)
system.ruby.network.routers6.throttle03.avg_useful_bandwidth         0.49                       # Average useful (only data) bandwidth (GB/s) (Ratio)
system.ruby.network.routers6.throttle03.msg_count.Response_Data::2          795                       (Unspecified)
system.ruby.network.routers6.throttle03.msg_bytes.Response_Data::2        57240                       (Unspecified)
system.ruby.network.routers6.throttle03.msg_count.ResponseL2hit_Data::2           12                       (Unspecified)
system.ruby.network.routers6.throttle03.msg_bytes.ResponseL2hit_Data::2          864                       (Unspecified)
system.ruby.network.routers6.throttle03.msg_count.ResponseLocal_Data::2         6683                       (Unspecified)
system.ruby.network.routers6.throttle03.msg_bytes.ResponseLocal_Data::2       481176                       (Unspecified)
system.ruby.network.routers6.throttle03.msg_count.Response_Control::2         3337                       (Unspecified)
system.ruby.network.routers6.throttle03.msg_bytes.Response_Control::2        26696                       (Unspecified)
system.ruby.network.routers6.throttle03.msg_count.Writeback_Control::2          139                       (Unspecified)
system.ruby.network.routers6.throttle03.msg_bytes.Writeback_Control::2         1112                       (Unspecified)
system.ruby.network.routers6.throttle03.msg_count.Forwarded_Control::0         6680                       (Unspecified)
system.ruby.network.routers6.throttle03.msg_bytes.Forwarded_Control::0        53440                       (Unspecified)
system.ruby.network.routers6.throttle03.msg_count.Invalidate_Control::0            8                       (Unspecified)
system.ruby.network.routers6.throttle03.msg_bytes.Invalidate_Control::0           64                       (Unspecified)
system.ruby.network.routers6.throttle04.acc_link_utilization 47562.500000                       # Accumulated link utilization system.ruby.network.int_links10 (Count)
system.ruby.network.routers6.throttle04.link_utilization     2.633375                       # Average link utilization (Ratio)
system.ruby.network.routers6.throttle04.total_msg_count        64493                       # Total number of messages forwarded by this switch (Count)
system.ruby.network.routers6.throttle04.total_msg_bytes       761000                       # Total number of bytes forwarded by this switch (Byte)
system.ruby.network.routers6.throttle04.total_data_msg_bytes       245056                       # Total number of data bytes forwarded by this switch (Byte)
system.ruby.network.routers6.throttle04.total_msg_wait_time       965500                       # Total time spend forwarding messages (Tick)
system.ruby.network.routers6.throttle04.total_stall_cy            0                       # Total time spent blocked on any output link (Cycle)
system.ruby.network.routers6.throttle04.total_bw_sat_cy        15497                       # Total time bandwidth was saturated on any output link (Cycle)
system.ruby.network.routers6.throttle04.avg_msg_wait_time    14.970617                       # Average time a message took to be forwarded (Ratio)
system.ruby.network.routers6.throttle04.avg_bandwidth         0.78                       # Average bandwidth (GB/s) (Ratio)
system.ruby.network.routers6.throttle04.avg_useful_bandwidth         0.25                       # Average useful (only data) bandwidth (GB/s) (Ratio)
system.ruby.network.routers6.throttle04.msg_count.Request_Control::0        30049                       (Unspecified)
system.ruby.network.routers6.throttle04.msg_bytes.Request_Control::0       240392                       (Unspecified)
system.ruby.network.routers6.throttle04.msg_count.Response_Data::2         3271                       (Unspecified)
system.ruby.network.routers6.throttle04.msg_bytes.Response_Data::2       235512                       (Unspecified)
system.ruby.network.routers6.throttle04.msg_count.Writeback_Data::0          558                       (Unspecified)
system.ruby.network.routers6.throttle04.msg_bytes.Writeback_Data::0        40176                       (Unspecified)
system.ruby.network.routers6.throttle04.msg_count.Writeback_Control::0          562                       (Unspecified)
system.ruby.network.routers6.throttle04.msg_bytes.Writeback_Control::0         4496                       (Unspecified)
system.ruby.network.routers6.throttle04.msg_count.Unblock_Control::2        30053                       (Unspecified)
system.ruby.network.routers6.throttle04.msg_bytes.Unblock_Control::2       240424                       (Unspecified)
system.ruby.network.routers6.throttle05.acc_link_utilization  3270.500000                       # Accumulated link utilization system.ruby.network.int_links11 (Count)
system.ruby.network.routers6.throttle05.link_utilization     0.181077                       # Average link utilization (Ratio)
system.ruby.network.routers6.throttle05.total_msg_count         6541                       # Total number of messages forwarded by this switch (Count)
system.ruby.network.routers6.throttle05.total_msg_bytes        52328                       # Total number of bytes forwarded by this switch (Byte)
system.ruby.network.routers6.throttle05.total_data_msg_bytes            0                       # Total number of data bytes forwarded by this switch (Byte)
system.ruby.network.routers6.throttle05.total_msg_wait_time            0                       # Total time spend forwarding messages (Tick)
system.ruby.network.routers6.throttle05.total_stall_cy            0                       # Total time spent blocked on any output link (Cycle)
system.ruby.network.routers6.throttle05.total_bw_sat_cy            0                       # Total time bandwidth was saturated on any output link (Cycle)
system.ruby.network.routers6.throttle05.avg_msg_wait_time            0                       # Average time a message took to be forwarded (Ratio)
system.ruby.network.routers6.throttle05.avg_bandwidth         0.05                       # Average bandwidth (GB/s) (Ratio)
system.ruby.network.routers6.throttle05.avg_useful_bandwidth         0.00                       # Average useful (only data) bandwidth (GB/s) (Ratio)
system.ruby.network.routers6.throttle05.msg_count.Request_Control::1         3271                       (Unspecified)
system.ruby.network.routers6.throttle05.msg_bytes.Request_Control::1        26168                       (Unspecified)
system.ruby.network.routers6.throttle05.msg_count.Unblock_Control::2         3270                       (Unspecified)
system.ruby.network.routers6.throttle05.msg_bytes.Unblock_Control::2        26160                       (Unspecified)
system.ruby.power_state.pwrStateResidencyTicks::UNDEFINED    903071000                       # Cumulative time (in ticks) in various power states (Tick)
system.sys_port_proxy.power_state.pwrStateResidencyTicks::UNDEFINED    903071000                       # Cumulative time (in ticks) in various power states (Tick)
system.voltage_domain.voltage                       1                       # Voltage in Volts (Volt)
system.workload.inst.arm                            0                       # number of arm instructions executed (Count)
system.workload.inst.quiesce                        0                       # number of quiesce instructions executed (Count)

---------- End Simulation Statistics   ----------
