
---------- Begin Simulation Statistics ----------
simSeconds                                   0.003017                       # Number of seconds simulated (Second)
simTicks                                   3016622000                       # Number of ticks simulated (Tick)
finalTick                                  3016622000                       # Number of ticks from beginning of simulation (restored from checkpoints and never reset) (Tick)
simFreq                                  1000000000000                       # The number of ticks per simulated second ((Tick/Second))
hostSeconds                                     15.23                       # Real time elapsed on the host (Second)
hostTickRate                                198107765                       # The number of ticks simulated per host second (ticks/s) ((Tick/Second))
hostMemory                                    2842840                       # Number of bytes of host memory used (Byte)
simInsts                                      2727814                       # Number of instructions simulated (Count)
simOps                                        5604424                       # Number of ops (including micro ops) simulated (Count)
hostInstRate                                   179138                       # Simulator instruction rate (inst/s) ((Count/Second))
hostOpRate                                     368048                       # Simulator op (including micro ops) rate (op/s) ((Count/Second))
system.clk_domain.clock                          1000                       # Clock period in ticks (Tick)
system.cpu0.numCycles                         6031937                       # Number of cpu cycles simulated (Cycle)
system.cpu0.cpi                             35.162828                       # CPI: cycles per instruction (core level) ((Cycle/Count))
system.cpu0.ipc                              0.028439                       # IPC: instructions per cycle (core level) ((Count/Cycle))
system.cpu0.numWorkItemsStarted                     0                       # Number of work items this cpu started (Count)
system.cpu0.numWorkItemsCompleted                   0                       # Number of work items this cpu completed (Count)
system.cpu0.commitStats0.numInsts              171543                       # Number of instructions committed (thread level) (Count)
system.cpu0.commitStats0.numOps                351847                       # Number of ops (including micro ops) committed (thread level) (Count)
system.cpu0.commitStats0.numInstsNotNOP             0                       # Number of instructions committed excluding NOPs or prefetches (Count)
system.cpu0.commitStats0.numOpsNotNOP               0                       # Number of Ops (including micro ops) Simulated (Count)
system.cpu0.commitStats0.cpi                35.162828                       # CPI: cycles per instruction (thread level) ((Cycle/Count))
system.cpu0.commitStats0.ipc                 0.028439                       # IPC: instructions per cycle (thread level) ((Count/Cycle))
system.cpu0.commitStats0.numMemRefs                 0                       # Number of memory references committed (Count)
system.cpu0.commitStats0.numFpInsts              1354                       # Number of float instructions (Count)
system.cpu0.commitStats0.numIntInsts           350986                       # Number of integer instructions (Count)
system.cpu0.commitStats0.numLoadInsts           11924                       # Number of load instructions (Count)
system.cpu0.commitStats0.numStoreInsts          12550                       # Number of store instructions (Count)
system.cpu0.commitStats0.numVecInsts                0                       # Number of vector instructions (Count)
system.cpu0.commitStats0.committedInstType::No_OpClass          209      0.06%      0.06% # Class of committed instruction. (Count)
system.cpu0.commitStats0.committedInstType::IntAlu       326577     92.82%     92.88% # Class of committed instruction. (Count)
system.cpu0.commitStats0.committedInstType::IntMult           13      0.00%     92.88% # Class of committed instruction. (Count)
system.cpu0.commitStats0.committedInstType::IntDiv           21      0.01%     92.89% # Class of committed instruction. (Count)
system.cpu0.commitStats0.committedInstType::FloatAdd          172      0.05%     92.94% # Class of committed instruction. (Count)
system.cpu0.commitStats0.committedInstType::FloatCmp            0      0.00%     92.94% # Class of committed instruction. (Count)
system.cpu0.commitStats0.committedInstType::FloatCvt            0      0.00%     92.94% # Class of committed instruction. (Count)
system.cpu0.commitStats0.committedInstType::FloatMult            0      0.00%     92.94% # Class of committed instruction. (Count)
system.cpu0.commitStats0.committedInstType::FloatMultAcc            0      0.00%     92.94% # Class of committed instruction. (Count)
system.cpu0.commitStats0.committedInstType::FloatDiv            0      0.00%     92.94% # Class of committed instruction. (Count)
system.cpu0.commitStats0.committedInstType::FloatMisc            0      0.00%     92.94% # Class of committed instruction. (Count)
system.cpu0.commitStats0.committedInstType::FloatSqrt            0      0.00%     92.94% # Class of committed instruction. (Count)
system.cpu0.commitStats0.committedInstType::SimdAdd            8      0.00%     92.94% # Class of committed instruction. (Count)
system.cpu0.commitStats0.committedInstType::SimdAddAcc            0      0.00%     92.94% # Class of committed instruction. (Count)
system.cpu0.commitStats0.committedInstType::SimdAlu           96      0.03%     92.97% # Class of committed instruction. (Count)
system.cpu0.commitStats0.committedInstType::SimdCmp            0      0.00%     92.97% # Class of committed instruction. (Count)
system.cpu0.commitStats0.committedInstType::SimdCvt           48      0.01%     92.98% # Class of committed instruction. (Count)
system.cpu0.commitStats0.committedInstType::SimdMisc          229      0.07%     93.04% # Class of committed instruction. (Count)
system.cpu0.commitStats0.committedInstType::SimdMult            0      0.00%     93.04% # Class of committed instruction. (Count)
system.cpu0.commitStats0.committedInstType::SimdMultAcc            0      0.00%     93.04% # Class of committed instruction. (Count)
system.cpu0.commitStats0.committedInstType::SimdMatMultAcc            0      0.00%     93.04% # Class of committed instruction. (Count)
system.cpu0.commitStats0.committedInstType::SimdShift            0      0.00%     93.04% # Class of committed instruction. (Count)
system.cpu0.commitStats0.committedInstType::SimdShiftAcc            0      0.00%     93.04% # Class of committed instruction. (Count)
system.cpu0.commitStats0.committedInstType::SimdDiv            0      0.00%     93.04% # Class of committed instruction. (Count)
system.cpu0.commitStats0.committedInstType::SimdSqrt            0      0.00%     93.04% # Class of committed instruction. (Count)
system.cpu0.commitStats0.committedInstType::SimdFloatAdd            0      0.00%     93.04% # Class of committed instruction. (Count)
system.cpu0.commitStats0.committedInstType::SimdFloatAlu            0      0.00%     93.04% # Class of committed instruction. (Count)
system.cpu0.commitStats0.committedInstType::SimdFloatCmp            0      0.00%     93.04% # Class of committed instruction. (Count)
system.cpu0.commitStats0.committedInstType::SimdFloatCvt            0      0.00%     93.04% # Class of committed instruction. (Count)
system.cpu0.commitStats0.committedInstType::SimdFloatDiv            0      0.00%     93.04% # Class of committed instruction. (Count)
system.cpu0.commitStats0.committedInstType::SimdFloatMisc            0      0.00%     93.04% # Class of committed instruction. (Count)
system.cpu0.commitStats0.committedInstType::SimdFloatMult            0      0.00%     93.04% # Class of committed instruction. (Count)
system.cpu0.commitStats0.committedInstType::SimdFloatMultAcc            0      0.00%     93.04% # Class of committed instruction. (Count)
system.cpu0.commitStats0.committedInstType::SimdFloatMatMultAcc            0      0.00%     93.04% # Class of committed instruction. (Count)
system.cpu0.commitStats0.committedInstType::SimdFloatSqrt            0      0.00%     93.04% # Class of committed instruction. (Count)
system.cpu0.commitStats0.committedInstType::SimdReduceAdd            0      0.00%     93.04% # Class of committed instruction. (Count)
system.cpu0.commitStats0.committedInstType::SimdReduceAlu            0      0.00%     93.04% # Class of committed instruction. (Count)
system.cpu0.commitStats0.committedInstType::SimdReduceCmp            0      0.00%     93.04% # Class of committed instruction. (Count)
system.cpu0.commitStats0.committedInstType::SimdFloatReduceAdd            0      0.00%     93.04% # Class of committed instruction. (Count)
system.cpu0.commitStats0.committedInstType::SimdFloatReduceCmp            0      0.00%     93.04% # Class of committed instruction. (Count)
system.cpu0.commitStats0.committedInstType::SimdAes            0      0.00%     93.04% # Class of committed instruction. (Count)
system.cpu0.commitStats0.committedInstType::SimdAesMix            0      0.00%     93.04% # Class of committed instruction. (Count)
system.cpu0.commitStats0.committedInstType::SimdSha1Hash            0      0.00%     93.04% # Class of committed instruction. (Count)
system.cpu0.commitStats0.committedInstType::SimdSha1Hash2            0      0.00%     93.04% # Class of committed instruction. (Count)
system.cpu0.commitStats0.committedInstType::SimdSha256Hash            0      0.00%     93.04% # Class of committed instruction. (Count)
system.cpu0.commitStats0.committedInstType::SimdSha256Hash2            0      0.00%     93.04% # Class of committed instruction. (Count)
system.cpu0.commitStats0.committedInstType::SimdShaSigma2            0      0.00%     93.04% # Class of committed instruction. (Count)
system.cpu0.commitStats0.committedInstType::SimdShaSigma3            0      0.00%     93.04% # Class of committed instruction. (Count)
system.cpu0.commitStats0.committedInstType::SimdPredAlu            0      0.00%     93.04% # Class of committed instruction. (Count)
system.cpu0.commitStats0.committedInstType::Matrix            0      0.00%     93.04% # Class of committed instruction. (Count)
system.cpu0.commitStats0.committedInstType::MatrixMov            0      0.00%     93.04% # Class of committed instruction. (Count)
system.cpu0.commitStats0.committedInstType::MatrixOP            0      0.00%     93.04% # Class of committed instruction. (Count)
system.cpu0.commitStats0.committedInstType::MemRead        11803      3.35%     96.40% # Class of committed instruction. (Count)
system.cpu0.commitStats0.committedInstType::MemWrite        12027      3.42%     99.82% # Class of committed instruction. (Count)
system.cpu0.commitStats0.committedInstType::FloatMemRead          121      0.03%     99.85% # Class of committed instruction. (Count)
system.cpu0.commitStats0.committedInstType::FloatMemWrite          523      0.15%    100.00% # Class of committed instruction. (Count)
system.cpu0.commitStats0.committedInstType::IprAccess            0      0.00%    100.00% # Class of committed instruction. (Count)
system.cpu0.commitStats0.committedInstType::InstPrefetch            0      0.00%    100.00% # Class of committed instruction. (Count)
system.cpu0.commitStats0.committedInstType::SimdUnitStrideLoad            0      0.00%    100.00% # Class of committed instruction. (Count)
system.cpu0.commitStats0.committedInstType::SimdUnitStrideStore            0      0.00%    100.00% # Class of committed instruction. (Count)
system.cpu0.commitStats0.committedInstType::SimdUnitStrideMaskLoad            0      0.00%    100.00% # Class of committed instruction. (Count)
system.cpu0.commitStats0.committedInstType::SimdUnitStrideMaskStore            0      0.00%    100.00% # Class of committed instruction. (Count)
system.cpu0.commitStats0.committedInstType::SimdStridedLoad            0      0.00%    100.00% # Class of committed instruction. (Count)
system.cpu0.commitStats0.committedInstType::SimdStridedStore            0      0.00%    100.00% # Class of committed instruction. (Count)
system.cpu0.commitStats0.committedInstType::SimdIndexedLoad            0      0.00%    100.00% # Class of committed instruction. (Count)
system.cpu0.commitStats0.committedInstType::SimdIndexedStore            0      0.00%    100.00% # Class of committed instruction. (Count)
system.cpu0.commitStats0.committedInstType::SimdWholeRegisterLoad            0      0.00%    100.00% # Class of committed instruction. (Count)
system.cpu0.commitStats0.committedInstType::SimdWholeRegisterStore            0      0.00%    100.00% # Class of committed instruction. (Count)
system.cpu0.commitStats0.committedInstType::SimdUnitStrideFaultOnlyFirstLoad            0      0.00%    100.00% # Class of committed instruction. (Count)
system.cpu0.commitStats0.committedInstType::SimdUnitStrideSegmentedLoad            0      0.00%    100.00% # Class of committed instruction. (Count)
system.cpu0.commitStats0.committedInstType::SimdUnitStrideSegmentedStore            0      0.00%    100.00% # Class of committed instruction. (Count)
system.cpu0.commitStats0.committedInstType::SimdUnitStrideSegmentedFaultOnlyFirstLoad            0      0.00%    100.00% # Class of committed instruction. (Count)
system.cpu0.commitStats0.committedInstType::SimdStrideSegmentedLoad            0      0.00%    100.00% # Class of committed instruction. (Count)
system.cpu0.commitStats0.committedInstType::SimdStrideSegmentedStore            0      0.00%    100.00% # Class of committed instruction. (Count)
system.cpu0.commitStats0.committedInstType::SimdExt            0      0.00%    100.00% # Class of committed instruction. (Count)
system.cpu0.commitStats0.committedInstType::SimdFloatExt            0      0.00%    100.00% # Class of committed instruction. (Count)
system.cpu0.commitStats0.committedInstType::SimdConfig            0      0.00%    100.00% # Class of committed instruction. (Count)
system.cpu0.commitStats0.committedInstType::total       351847                       # Class of committed instruction. (Count)
system.cpu0.commitStats0.committedControl::IsControl        72158                       # Class of control type instructions committed (Count)
system.cpu0.commitStats0.committedControl::IsDirectControl        71910                       # Class of control type instructions committed (Count)
system.cpu0.commitStats0.committedControl::IsIndirectControl          248                       # Class of control type instructions committed (Count)
system.cpu0.commitStats0.committedControl::IsCondControl        51621                       # Class of control type instructions committed (Count)
system.cpu0.commitStats0.committedControl::IsUncondControl        20537                       # Class of control type instructions committed (Count)
system.cpu0.commitStats0.committedControl::IsCall          180                       # Class of control type instructions committed (Count)
system.cpu0.commitStats0.committedControl::IsReturn          175                       # Class of control type instructions committed (Count)
system.cpu0.exec_context.thread_0.numMatAluAccesses            0                       # Number of matrix alu accesses (Count)
system.cpu0.exec_context.thread_0.numCallsReturns          355                       # Number of times a function call or return occured (Count)
system.cpu0.exec_context.thread_0.numMatInsts            0                       # Number of matrix instructions (Count)
system.cpu0.exec_context.thread_0.numIdleCycles  1306.718860                       # Number of idle cycles (Cycle)
system.cpu0.exec_context.thread_0.numBusyCycles 6030630.281140                       # Number of busy cycles (Cycle)
system.cpu0.exec_context.thread_0.notIdleFraction     0.999783                       # Percentage of non-idle cycles (Ratio)
system.cpu0.exec_context.thread_0.idleFraction     0.000217                       # Percentage of idle cycles (Ratio)
system.cpu0.executeStats0.numInsts                  0                       # Number of executed instructions (Count)
system.cpu0.executeStats0.numNop                    0                       # Number of nop insts executed (Count)
system.cpu0.executeStats0.numBranches               0                       # Number of branches executed (Count)
system.cpu0.executeStats0.numLoadInsts              0                       # Number of load instructions executed (Count)
system.cpu0.executeStats0.numStoreInsts         24474                       # Number of stores executed (Count)
system.cpu0.executeStats0.instRate                  0                       # Inst execution rate ((Count/Cycle))
system.cpu0.executeStats0.numFpAluAccesses         1354                       # Number of float alu accesses (Count)
system.cpu0.executeStats0.numFpRegReads          1462                       # Number of times the floating registers were read (Count)
system.cpu0.executeStats0.numFpRegWrites          785                       # Number of times the floating registers were written (Count)
system.cpu0.executeStats0.numIntAluAccesses       350986                       # Number of integer alu accesses (Count)
system.cpu0.executeStats0.numIntRegReads       323615                       # Number of times the integer registers were read (Count)
system.cpu0.executeStats0.numIntRegWrites       214687                       # Number of times the integer registers were written (Count)
system.cpu0.executeStats0.numMemRefs            24474                       # Number of memory refs (Count)
system.cpu0.executeStats0.numMiscRegReads       169005                       # Number of times the Misc registers were read (Count)
system.cpu0.executeStats0.numVecAluAccesses            0                       # Number of vector alu accesses (Count)
system.cpu0.executeStats0.numDiscardedOps            0                       # Number of ops (including micro ops) which were discarded before commit (Count)
system.cpu0.fetchStats0.numInsts               171543                       # Number of instructions fetched (thread level) (Count)
system.cpu0.fetchStats0.numOps                 351847                       # Number of ops (including micro ops) fetched (thread level) (Count)
system.cpu0.fetchStats0.fetchRate            0.028439                       # Number of inst fetches per cycle ((Count/Cycle))
system.cpu0.fetchStats0.numBranches             72158                       # Number of branches fetched (Count)
system.cpu0.fetchStats0.branchRate           0.011963                       # Number of branch fetches per cycle (Ratio)
system.cpu0.fetchStats0.numFetchSuspends            0                       # Number of times Execute suspended instruction fetching (Count)
system.cpu0.interrupts.clk_domain.clock          8000                       # Clock period in ticks (Tick)
system.cpu0.mmu.dtb.rdAccesses                  11928                       # TLB accesses on read requests (Count)
system.cpu0.mmu.dtb.wrAccesses                  12550                       # TLB accesses on write requests (Count)
system.cpu0.mmu.dtb.rdMisses                       15                       # TLB misses on read requests (Count)
system.cpu0.mmu.dtb.wrMisses                       11                       # TLB misses on write requests (Count)
system.cpu0.mmu.dtb.walker.power_state.pwrStateResidencyTicks::UNDEFINED   3016622000                       # Cumulative time (in ticks) in various power states (Tick)
system.cpu0.mmu.itb.rdAccesses                      0                       # TLB accesses on read requests (Count)
system.cpu0.mmu.itb.wrAccesses                 235945                       # TLB accesses on write requests (Count)
system.cpu0.mmu.itb.rdMisses                        0                       # TLB misses on read requests (Count)
system.cpu0.mmu.itb.wrMisses                       47                       # TLB misses on write requests (Count)
system.cpu0.mmu.itb.walker.power_state.pwrStateResidencyTicks::UNDEFINED   3016622000                       # Cumulative time (in ticks) in various power states (Tick)
system.cpu0.power_state.pwrStateResidencyTicks::ON   3016622000                       # Cumulative time (in ticks) in various power states (Tick)
system.cpu0.thread_0.numInsts                       0                       # Number of Instructions committed (Count)
system.cpu0.thread_0.numOps                         0                       # Number of Ops committed (Count)
system.cpu0.thread_0.numMemRefs                     0                       # Number of Memory References (Count)
system.cpu0.workload.numSyscalls                   15                       # Number of system calls (Count)
system.cpu1.numCycles                         6032379                       # Number of cpu cycles simulated (Cycle)
system.cpu1.cpi                             35.411676                       # CPI: cycles per instruction (core level) ((Cycle/Count))
system.cpu1.ipc                              0.028239                       # IPC: instructions per cycle (core level) ((Count/Cycle))
system.cpu1.numWorkItemsStarted                     0                       # Number of work items this cpu started (Count)
system.cpu1.numWorkItemsCompleted                   0                       # Number of work items this cpu completed (Count)
system.cpu1.commitStats0.numInsts              170350                       # Number of instructions committed (thread level) (Count)
system.cpu1.commitStats0.numOps                349990                       # Number of ops (including micro ops) committed (thread level) (Count)
system.cpu1.commitStats0.numInstsNotNOP             0                       # Number of instructions committed excluding NOPs or prefetches (Count)
system.cpu1.commitStats0.numOpsNotNOP               0                       # Number of Ops (including micro ops) Simulated (Count)
system.cpu1.commitStats0.cpi                35.411676                       # CPI: cycles per instruction (thread level) ((Cycle/Count))
system.cpu1.commitStats0.ipc                 0.028239                       # IPC: instructions per cycle (thread level) ((Count/Cycle))
system.cpu1.commitStats0.numMemRefs                 0                       # Number of memory references committed (Count)
system.cpu1.commitStats0.numFpInsts              1354                       # Number of float instructions (Count)
system.cpu1.commitStats0.numIntInsts           349129                       # Number of integer instructions (Count)
system.cpu1.commitStats0.numLoadInsts           11991                       # Number of load instructions (Count)
system.cpu1.commitStats0.numStoreInsts          11893                       # Number of store instructions (Count)
system.cpu1.commitStats0.numVecInsts                0                       # Number of vector instructions (Count)
system.cpu1.commitStats0.committedInstType::No_OpClass          210      0.06%      0.06% # Class of committed instruction. (Count)
system.cpu1.commitStats0.committedInstType::IntAlu       325309     92.95%     93.01% # Class of committed instruction. (Count)
system.cpu1.commitStats0.committedInstType::IntMult           13      0.00%     93.01% # Class of committed instruction. (Count)
system.cpu1.commitStats0.committedInstType::IntDiv           21      0.01%     93.02% # Class of committed instruction. (Count)
system.cpu1.commitStats0.committedInstType::FloatAdd          172      0.05%     93.07% # Class of committed instruction. (Count)
system.cpu1.commitStats0.committedInstType::FloatCmp            0      0.00%     93.07% # Class of committed instruction. (Count)
system.cpu1.commitStats0.committedInstType::FloatCvt            0      0.00%     93.07% # Class of committed instruction. (Count)
system.cpu1.commitStats0.committedInstType::FloatMult            0      0.00%     93.07% # Class of committed instruction. (Count)
system.cpu1.commitStats0.committedInstType::FloatMultAcc            0      0.00%     93.07% # Class of committed instruction. (Count)
system.cpu1.commitStats0.committedInstType::FloatDiv            0      0.00%     93.07% # Class of committed instruction. (Count)
system.cpu1.commitStats0.committedInstType::FloatMisc            0      0.00%     93.07% # Class of committed instruction. (Count)
system.cpu1.commitStats0.committedInstType::FloatSqrt            0      0.00%     93.07% # Class of committed instruction. (Count)
system.cpu1.commitStats0.committedInstType::SimdAdd            8      0.00%     93.07% # Class of committed instruction. (Count)
system.cpu1.commitStats0.committedInstType::SimdAddAcc            0      0.00%     93.07% # Class of committed instruction. (Count)
system.cpu1.commitStats0.committedInstType::SimdAlu           96      0.03%     93.10% # Class of committed instruction. (Count)
system.cpu1.commitStats0.committedInstType::SimdCmp            0      0.00%     93.10% # Class of committed instruction. (Count)
system.cpu1.commitStats0.committedInstType::SimdCvt           48      0.01%     93.11% # Class of committed instruction. (Count)
system.cpu1.commitStats0.committedInstType::SimdMisc          229      0.07%     93.18% # Class of committed instruction. (Count)
system.cpu1.commitStats0.committedInstType::SimdMult            0      0.00%     93.18% # Class of committed instruction. (Count)
system.cpu1.commitStats0.committedInstType::SimdMultAcc            0      0.00%     93.18% # Class of committed instruction. (Count)
system.cpu1.commitStats0.committedInstType::SimdMatMultAcc            0      0.00%     93.18% # Class of committed instruction. (Count)
system.cpu1.commitStats0.committedInstType::SimdShift            0      0.00%     93.18% # Class of committed instruction. (Count)
system.cpu1.commitStats0.committedInstType::SimdShiftAcc            0      0.00%     93.18% # Class of committed instruction. (Count)
system.cpu1.commitStats0.committedInstType::SimdDiv            0      0.00%     93.18% # Class of committed instruction. (Count)
system.cpu1.commitStats0.committedInstType::SimdSqrt            0      0.00%     93.18% # Class of committed instruction. (Count)
system.cpu1.commitStats0.committedInstType::SimdFloatAdd            0      0.00%     93.18% # Class of committed instruction. (Count)
system.cpu1.commitStats0.committedInstType::SimdFloatAlu            0      0.00%     93.18% # Class of committed instruction. (Count)
system.cpu1.commitStats0.committedInstType::SimdFloatCmp            0      0.00%     93.18% # Class of committed instruction. (Count)
system.cpu1.commitStats0.committedInstType::SimdFloatCvt            0      0.00%     93.18% # Class of committed instruction. (Count)
system.cpu1.commitStats0.committedInstType::SimdFloatDiv            0      0.00%     93.18% # Class of committed instruction. (Count)
system.cpu1.commitStats0.committedInstType::SimdFloatMisc            0      0.00%     93.18% # Class of committed instruction. (Count)
system.cpu1.commitStats0.committedInstType::SimdFloatMult            0      0.00%     93.18% # Class of committed instruction. (Count)
system.cpu1.commitStats0.committedInstType::SimdFloatMultAcc            0      0.00%     93.18% # Class of committed instruction. (Count)
system.cpu1.commitStats0.committedInstType::SimdFloatMatMultAcc            0      0.00%     93.18% # Class of committed instruction. (Count)
system.cpu1.commitStats0.committedInstType::SimdFloatSqrt            0      0.00%     93.18% # Class of committed instruction. (Count)
system.cpu1.commitStats0.committedInstType::SimdReduceAdd            0      0.00%     93.18% # Class of committed instruction. (Count)
system.cpu1.commitStats0.committedInstType::SimdReduceAlu            0      0.00%     93.18% # Class of committed instruction. (Count)
system.cpu1.commitStats0.committedInstType::SimdReduceCmp            0      0.00%     93.18% # Class of committed instruction. (Count)
system.cpu1.commitStats0.committedInstType::SimdFloatReduceAdd            0      0.00%     93.18% # Class of committed instruction. (Count)
system.cpu1.commitStats0.committedInstType::SimdFloatReduceCmp            0      0.00%     93.18% # Class of committed instruction. (Count)
system.cpu1.commitStats0.committedInstType::SimdAes            0      0.00%     93.18% # Class of committed instruction. (Count)
system.cpu1.commitStats0.committedInstType::SimdAesMix            0      0.00%     93.18% # Class of committed instruction. (Count)
system.cpu1.commitStats0.committedInstType::SimdSha1Hash            0      0.00%     93.18% # Class of committed instruction. (Count)
system.cpu1.commitStats0.committedInstType::SimdSha1Hash2            0      0.00%     93.18% # Class of committed instruction. (Count)
system.cpu1.commitStats0.committedInstType::SimdSha256Hash            0      0.00%     93.18% # Class of committed instruction. (Count)
system.cpu1.commitStats0.committedInstType::SimdSha256Hash2            0      0.00%     93.18% # Class of committed instruction. (Count)
system.cpu1.commitStats0.committedInstType::SimdShaSigma2            0      0.00%     93.18% # Class of committed instruction. (Count)
system.cpu1.commitStats0.committedInstType::SimdShaSigma3            0      0.00%     93.18% # Class of committed instruction. (Count)
system.cpu1.commitStats0.committedInstType::SimdPredAlu            0      0.00%     93.18% # Class of committed instruction. (Count)
system.cpu1.commitStats0.committedInstType::Matrix            0      0.00%     93.18% # Class of committed instruction. (Count)
system.cpu1.commitStats0.committedInstType::MatrixMov            0      0.00%     93.18% # Class of committed instruction. (Count)
system.cpu1.commitStats0.committedInstType::MatrixOP            0      0.00%     93.18% # Class of committed instruction. (Count)
system.cpu1.commitStats0.committedInstType::MemRead        11870      3.39%     96.57% # Class of committed instruction. (Count)
system.cpu1.commitStats0.committedInstType::MemWrite        11370      3.25%     99.82% # Class of committed instruction. (Count)
system.cpu1.commitStats0.committedInstType::FloatMemRead          121      0.03%     99.85% # Class of committed instruction. (Count)
system.cpu1.commitStats0.committedInstType::FloatMemWrite          523      0.15%    100.00% # Class of committed instruction. (Count)
system.cpu1.commitStats0.committedInstType::IprAccess            0      0.00%    100.00% # Class of committed instruction. (Count)
system.cpu1.commitStats0.committedInstType::InstPrefetch            0      0.00%    100.00% # Class of committed instruction. (Count)
system.cpu1.commitStats0.committedInstType::SimdUnitStrideLoad            0      0.00%    100.00% # Class of committed instruction. (Count)
system.cpu1.commitStats0.committedInstType::SimdUnitStrideStore            0      0.00%    100.00% # Class of committed instruction. (Count)
system.cpu1.commitStats0.committedInstType::SimdUnitStrideMaskLoad            0      0.00%    100.00% # Class of committed instruction. (Count)
system.cpu1.commitStats0.committedInstType::SimdUnitStrideMaskStore            0      0.00%    100.00% # Class of committed instruction. (Count)
system.cpu1.commitStats0.committedInstType::SimdStridedLoad            0      0.00%    100.00% # Class of committed instruction. (Count)
system.cpu1.commitStats0.committedInstType::SimdStridedStore            0      0.00%    100.00% # Class of committed instruction. (Count)
system.cpu1.commitStats0.committedInstType::SimdIndexedLoad            0      0.00%    100.00% # Class of committed instruction. (Count)
system.cpu1.commitStats0.committedInstType::SimdIndexedStore            0      0.00%    100.00% # Class of committed instruction. (Count)
system.cpu1.commitStats0.committedInstType::SimdWholeRegisterLoad            0      0.00%    100.00% # Class of committed instruction. (Count)
system.cpu1.commitStats0.committedInstType::SimdWholeRegisterStore            0      0.00%    100.00% # Class of committed instruction. (Count)
system.cpu1.commitStats0.committedInstType::SimdUnitStrideFaultOnlyFirstLoad            0      0.00%    100.00% # Class of committed instruction. (Count)
system.cpu1.commitStats0.committedInstType::SimdUnitStrideSegmentedLoad            0      0.00%    100.00% # Class of committed instruction. (Count)
system.cpu1.commitStats0.committedInstType::SimdUnitStrideSegmentedStore            0      0.00%    100.00% # Class of committed instruction. (Count)
system.cpu1.commitStats0.committedInstType::SimdUnitStrideSegmentedFaultOnlyFirstLoad            0      0.00%    100.00% # Class of committed instruction. (Count)
system.cpu1.commitStats0.committedInstType::SimdStrideSegmentedLoad            0      0.00%    100.00% # Class of committed instruction. (Count)
system.cpu1.commitStats0.committedInstType::SimdStrideSegmentedStore            0      0.00%    100.00% # Class of committed instruction. (Count)
system.cpu1.commitStats0.committedInstType::SimdExt            0      0.00%    100.00% # Class of committed instruction. (Count)
system.cpu1.commitStats0.committedInstType::SimdFloatExt            0      0.00%    100.00% # Class of committed instruction. (Count)
system.cpu1.commitStats0.committedInstType::SimdConfig            0      0.00%    100.00% # Class of committed instruction. (Count)
system.cpu1.commitStats0.committedInstType::total       349990                       # Class of committed instruction. (Count)
system.cpu1.commitStats0.committedControl::IsControl        72173                       # Class of control type instructions committed (Count)
system.cpu1.commitStats0.committedControl::IsDirectControl        71925                       # Class of control type instructions committed (Count)
system.cpu1.commitStats0.committedControl::IsIndirectControl          248                       # Class of control type instructions committed (Count)
system.cpu1.commitStats0.committedControl::IsCondControl        51637                       # Class of control type instructions committed (Count)
system.cpu1.commitStats0.committedControl::IsUncondControl        20536                       # Class of control type instructions committed (Count)
system.cpu1.commitStats0.committedControl::IsCall          180                       # Class of control type instructions committed (Count)
system.cpu1.commitStats0.committedControl::IsReturn          175                       # Class of control type instructions committed (Count)
system.cpu1.exec_context.thread_0.numMatAluAccesses            0                       # Number of matrix alu accesses (Count)
system.cpu1.exec_context.thread_0.numCallsReturns          355                       # Number of times a function call or return occured (Count)
system.cpu1.exec_context.thread_0.numMatInsts            0                       # Number of matrix instructions (Count)
system.cpu1.exec_context.thread_0.numIdleCycles   864.877982                       # Number of idle cycles (Cycle)
system.cpu1.exec_context.thread_0.numBusyCycles 6031514.122018                       # Number of busy cycles (Cycle)
system.cpu1.exec_context.thread_0.notIdleFraction     0.999857                       # Percentage of non-idle cycles (Ratio)
system.cpu1.exec_context.thread_0.idleFraction     0.000143                       # Percentage of idle cycles (Ratio)
system.cpu1.executeStats0.numInsts                  0                       # Number of executed instructions (Count)
system.cpu1.executeStats0.numNop                    0                       # Number of nop insts executed (Count)
system.cpu1.executeStats0.numBranches               0                       # Number of branches executed (Count)
system.cpu1.executeStats0.numLoadInsts              0                       # Number of load instructions executed (Count)
system.cpu1.executeStats0.numStoreInsts         23884                       # Number of stores executed (Count)
system.cpu1.executeStats0.instRate                  0                       # Inst execution rate ((Count/Cycle))
system.cpu1.executeStats0.numFpAluAccesses         1354                       # Number of float alu accesses (Count)
system.cpu1.executeStats0.numFpRegReads          1462                       # Number of times the floating registers were read (Count)
system.cpu1.executeStats0.numFpRegWrites          785                       # Number of times the floating registers were written (Count)
system.cpu1.executeStats0.numIntAluAccesses       349129                       # Number of integer alu accesses (Count)
system.cpu1.executeStats0.numIntRegReads       321148                       # Number of times the integer registers were read (Count)
system.cpu1.executeStats0.numIntRegWrites       213457                       # Number of times the integer registers were written (Count)
system.cpu1.executeStats0.numMemRefs            23884                       # Number of memory refs (Count)
system.cpu1.executeStats0.numMiscRegReads       168445                       # Number of times the Misc registers were read (Count)
system.cpu1.executeStats0.numVecAluAccesses            0                       # Number of vector alu accesses (Count)
system.cpu1.executeStats0.numDiscardedOps            0                       # Number of ops (including micro ops) which were discarded before commit (Count)
system.cpu1.fetchStats0.numInsts               170350                       # Number of instructions fetched (thread level) (Count)
system.cpu1.fetchStats0.numOps                 349990                       # Number of ops (including micro ops) fetched (thread level) (Count)
system.cpu1.fetchStats0.fetchRate            0.028239                       # Number of inst fetches per cycle ((Count/Cycle))
system.cpu1.fetchStats0.numBranches             72173                       # Number of branches fetched (Count)
system.cpu1.fetchStats0.branchRate           0.011964                       # Number of branch fetches per cycle (Ratio)
system.cpu1.fetchStats0.numFetchSuspends            0                       # Number of times Execute suspended instruction fetching (Count)
system.cpu1.interrupts.clk_domain.clock          8000                       # Clock period in ticks (Tick)
system.cpu1.mmu.dtb.rdAccesses                  11995                       # TLB accesses on read requests (Count)
system.cpu1.mmu.dtb.wrAccesses                  11893                       # TLB accesses on write requests (Count)
system.cpu1.mmu.dtb.rdMisses                       17                       # TLB misses on read requests (Count)
system.cpu1.mmu.dtb.wrMisses                        9                       # TLB misses on write requests (Count)
system.cpu1.mmu.dtb.walker.power_state.pwrStateResidencyTicks::UNDEFINED   3016622000                       # Cumulative time (in ticks) in various power states (Tick)
system.cpu1.mmu.itb.rdAccesses                      0                       # TLB accesses on read requests (Count)
system.cpu1.mmu.itb.wrAccesses                 233788                       # TLB accesses on write requests (Count)
system.cpu1.mmu.itb.rdMisses                        0                       # TLB misses on read requests (Count)
system.cpu1.mmu.itb.wrMisses                       47                       # TLB misses on write requests (Count)
system.cpu1.mmu.itb.walker.power_state.pwrStateResidencyTicks::UNDEFINED   3016622000                       # Cumulative time (in ticks) in various power states (Tick)
system.cpu1.power_state.pwrStateResidencyTicks::ON   3016622000                       # Cumulative time (in ticks) in various power states (Tick)
system.cpu1.thread_0.numInsts                       0                       # Number of Instructions committed (Count)
system.cpu1.thread_0.numOps                         0                       # Number of Ops committed (Count)
system.cpu1.thread_0.numMemRefs                     0                       # Number of Memory References (Count)
system.cpu1.workload.numSyscalls                   15                       # Number of system calls (Count)
system.cpu10.numCycles                        6033244                       # Number of cpu cycles simulated (Cycle)
system.cpu10.cpi                            35.410102                       # CPI: cycles per instruction (core level) ((Cycle/Count))
system.cpu10.ipc                             0.028241                       # IPC: instructions per cycle (core level) ((Count/Cycle))
system.cpu10.numWorkItemsStarted                    0                       # Number of work items this cpu started (Count)
system.cpu10.numWorkItemsCompleted                  0                       # Number of work items this cpu completed (Count)
system.cpu10.commitStats0.numInsts             170382                       # Number of instructions committed (thread level) (Count)
system.cpu10.commitStats0.numOps               350065                       # Number of ops (including micro ops) committed (thread level) (Count)
system.cpu10.commitStats0.numInstsNotNOP            0                       # Number of instructions committed excluding NOPs or prefetches (Count)
system.cpu10.commitStats0.numOpsNotNOP              0                       # Number of Ops (including micro ops) Simulated (Count)
system.cpu10.commitStats0.cpi               35.410102                       # CPI: cycles per instruction (thread level) ((Cycle/Count))
system.cpu10.commitStats0.ipc                0.028241                       # IPC: instructions per cycle (thread level) ((Count/Cycle))
system.cpu10.commitStats0.numMemRefs                0                       # Number of memory references committed (Count)
system.cpu10.commitStats0.numFpInsts             1354                       # Number of float instructions (Count)
system.cpu10.commitStats0.numIntInsts          349204                       # Number of integer instructions (Count)
system.cpu10.commitStats0.numLoadInsts          12002                       # Number of load instructions (Count)
system.cpu10.commitStats0.numStoreInsts         11893                       # Number of store instructions (Count)
system.cpu10.commitStats0.numVecInsts               0                       # Number of vector instructions (Count)
system.cpu10.commitStats0.committedInstType::No_OpClass          210      0.06%      0.06% # Class of committed instruction. (Count)
system.cpu10.commitStats0.committedInstType::IntAlu       325372     92.95%     93.01% # Class of committed instruction. (Count)
system.cpu10.commitStats0.committedInstType::IntMult           14      0.00%     93.01% # Class of committed instruction. (Count)
system.cpu10.commitStats0.committedInstType::IntDiv           21      0.01%     93.02% # Class of committed instruction. (Count)
system.cpu10.commitStats0.committedInstType::FloatAdd          172      0.05%     93.07% # Class of committed instruction. (Count)
system.cpu10.commitStats0.committedInstType::FloatCmp            0      0.00%     93.07% # Class of committed instruction. (Count)
system.cpu10.commitStats0.committedInstType::FloatCvt            0      0.00%     93.07% # Class of committed instruction. (Count)
system.cpu10.commitStats0.committedInstType::FloatMult            0      0.00%     93.07% # Class of committed instruction. (Count)
system.cpu10.commitStats0.committedInstType::FloatMultAcc            0      0.00%     93.07% # Class of committed instruction. (Count)
system.cpu10.commitStats0.committedInstType::FloatDiv            0      0.00%     93.07% # Class of committed instruction. (Count)
system.cpu10.commitStats0.committedInstType::FloatMisc            0      0.00%     93.07% # Class of committed instruction. (Count)
system.cpu10.commitStats0.committedInstType::FloatSqrt            0      0.00%     93.07% # Class of committed instruction. (Count)
system.cpu10.commitStats0.committedInstType::SimdAdd            8      0.00%     93.07% # Class of committed instruction. (Count)
system.cpu10.commitStats0.committedInstType::SimdAddAcc            0      0.00%     93.07% # Class of committed instruction. (Count)
system.cpu10.commitStats0.committedInstType::SimdAlu           96      0.03%     93.09% # Class of committed instruction. (Count)
system.cpu10.commitStats0.committedInstType::SimdCmp            0      0.00%     93.09% # Class of committed instruction. (Count)
system.cpu10.commitStats0.committedInstType::SimdCvt           48      0.01%     93.11% # Class of committed instruction. (Count)
system.cpu10.commitStats0.committedInstType::SimdMisc          229      0.07%     93.17% # Class of committed instruction. (Count)
system.cpu10.commitStats0.committedInstType::SimdMult            0      0.00%     93.17% # Class of committed instruction. (Count)
system.cpu10.commitStats0.committedInstType::SimdMultAcc            0      0.00%     93.17% # Class of committed instruction. (Count)
system.cpu10.commitStats0.committedInstType::SimdMatMultAcc            0      0.00%     93.17% # Class of committed instruction. (Count)
system.cpu10.commitStats0.committedInstType::SimdShift            0      0.00%     93.17% # Class of committed instruction. (Count)
system.cpu10.commitStats0.committedInstType::SimdShiftAcc            0      0.00%     93.17% # Class of committed instruction. (Count)
system.cpu10.commitStats0.committedInstType::SimdDiv            0      0.00%     93.17% # Class of committed instruction. (Count)
system.cpu10.commitStats0.committedInstType::SimdSqrt            0      0.00%     93.17% # Class of committed instruction. (Count)
system.cpu10.commitStats0.committedInstType::SimdFloatAdd            0      0.00%     93.17% # Class of committed instruction. (Count)
system.cpu10.commitStats0.committedInstType::SimdFloatAlu            0      0.00%     93.17% # Class of committed instruction. (Count)
system.cpu10.commitStats0.committedInstType::SimdFloatCmp            0      0.00%     93.17% # Class of committed instruction. (Count)
system.cpu10.commitStats0.committedInstType::SimdFloatCvt            0      0.00%     93.17% # Class of committed instruction. (Count)
system.cpu10.commitStats0.committedInstType::SimdFloatDiv            0      0.00%     93.17% # Class of committed instruction. (Count)
system.cpu10.commitStats0.committedInstType::SimdFloatMisc            0      0.00%     93.17% # Class of committed instruction. (Count)
system.cpu10.commitStats0.committedInstType::SimdFloatMult            0      0.00%     93.17% # Class of committed instruction. (Count)
system.cpu10.commitStats0.committedInstType::SimdFloatMultAcc            0      0.00%     93.17% # Class of committed instruction. (Count)
system.cpu10.commitStats0.committedInstType::SimdFloatMatMultAcc            0      0.00%     93.17% # Class of committed instruction. (Count)
system.cpu10.commitStats0.committedInstType::SimdFloatSqrt            0      0.00%     93.17% # Class of committed instruction. (Count)
system.cpu10.commitStats0.committedInstType::SimdReduceAdd            0      0.00%     93.17% # Class of committed instruction. (Count)
system.cpu10.commitStats0.committedInstType::SimdReduceAlu            0      0.00%     93.17% # Class of committed instruction. (Count)
system.cpu10.commitStats0.committedInstType::SimdReduceCmp            0      0.00%     93.17% # Class of committed instruction. (Count)
system.cpu10.commitStats0.committedInstType::SimdFloatReduceAdd            0      0.00%     93.17% # Class of committed instruction. (Count)
system.cpu10.commitStats0.committedInstType::SimdFloatReduceCmp            0      0.00%     93.17% # Class of committed instruction. (Count)
system.cpu10.commitStats0.committedInstType::SimdAes            0      0.00%     93.17% # Class of committed instruction. (Count)
system.cpu10.commitStats0.committedInstType::SimdAesMix            0      0.00%     93.17% # Class of committed instruction. (Count)
system.cpu10.commitStats0.committedInstType::SimdSha1Hash            0      0.00%     93.17% # Class of committed instruction. (Count)
system.cpu10.commitStats0.committedInstType::SimdSha1Hash2            0      0.00%     93.17% # Class of committed instruction. (Count)
system.cpu10.commitStats0.committedInstType::SimdSha256Hash            0      0.00%     93.17% # Class of committed instruction. (Count)
system.cpu10.commitStats0.committedInstType::SimdSha256Hash2            0      0.00%     93.17% # Class of committed instruction. (Count)
system.cpu10.commitStats0.committedInstType::SimdShaSigma2            0      0.00%     93.17% # Class of committed instruction. (Count)
system.cpu10.commitStats0.committedInstType::SimdShaSigma3            0      0.00%     93.17% # Class of committed instruction. (Count)
system.cpu10.commitStats0.committedInstType::SimdPredAlu            0      0.00%     93.17% # Class of committed instruction. (Count)
system.cpu10.commitStats0.committedInstType::Matrix            0      0.00%     93.17% # Class of committed instruction. (Count)
system.cpu10.commitStats0.committedInstType::MatrixMov            0      0.00%     93.17% # Class of committed instruction. (Count)
system.cpu10.commitStats0.committedInstType::MatrixOP            0      0.00%     93.17% # Class of committed instruction. (Count)
system.cpu10.commitStats0.committedInstType::MemRead        11881      3.39%     96.57% # Class of committed instruction. (Count)
system.cpu10.commitStats0.committedInstType::MemWrite        11370      3.25%     99.82% # Class of committed instruction. (Count)
system.cpu10.commitStats0.committedInstType::FloatMemRead          121      0.03%     99.85% # Class of committed instruction. (Count)
system.cpu10.commitStats0.committedInstType::FloatMemWrite          523      0.15%    100.00% # Class of committed instruction. (Count)
system.cpu10.commitStats0.committedInstType::IprAccess            0      0.00%    100.00% # Class of committed instruction. (Count)
system.cpu10.commitStats0.committedInstType::InstPrefetch            0      0.00%    100.00% # Class of committed instruction. (Count)
system.cpu10.commitStats0.committedInstType::SimdUnitStrideLoad            0      0.00%    100.00% # Class of committed instruction. (Count)
system.cpu10.commitStats0.committedInstType::SimdUnitStrideStore            0      0.00%    100.00% # Class of committed instruction. (Count)
system.cpu10.commitStats0.committedInstType::SimdUnitStrideMaskLoad            0      0.00%    100.00% # Class of committed instruction. (Count)
system.cpu10.commitStats0.committedInstType::SimdUnitStrideMaskStore            0      0.00%    100.00% # Class of committed instruction. (Count)
system.cpu10.commitStats0.committedInstType::SimdStridedLoad            0      0.00%    100.00% # Class of committed instruction. (Count)
system.cpu10.commitStats0.committedInstType::SimdStridedStore            0      0.00%    100.00% # Class of committed instruction. (Count)
system.cpu10.commitStats0.committedInstType::SimdIndexedLoad            0      0.00%    100.00% # Class of committed instruction. (Count)
system.cpu10.commitStats0.committedInstType::SimdIndexedStore            0      0.00%    100.00% # Class of committed instruction. (Count)
system.cpu10.commitStats0.committedInstType::SimdWholeRegisterLoad            0      0.00%    100.00% # Class of committed instruction. (Count)
system.cpu10.commitStats0.committedInstType::SimdWholeRegisterStore            0      0.00%    100.00% # Class of committed instruction. (Count)
system.cpu10.commitStats0.committedInstType::SimdUnitStrideFaultOnlyFirstLoad            0      0.00%    100.00% # Class of committed instruction. (Count)
system.cpu10.commitStats0.committedInstType::SimdUnitStrideSegmentedLoad            0      0.00%    100.00% # Class of committed instruction. (Count)
system.cpu10.commitStats0.committedInstType::SimdUnitStrideSegmentedStore            0      0.00%    100.00% # Class of committed instruction. (Count)
system.cpu10.commitStats0.committedInstType::SimdUnitStrideSegmentedFaultOnlyFirstLoad            0      0.00%    100.00% # Class of committed instruction. (Count)
system.cpu10.commitStats0.committedInstType::SimdStrideSegmentedLoad            0      0.00%    100.00% # Class of committed instruction. (Count)
system.cpu10.commitStats0.committedInstType::SimdStrideSegmentedStore            0      0.00%    100.00% # Class of committed instruction. (Count)
system.cpu10.commitStats0.committedInstType::SimdExt            0      0.00%    100.00% # Class of committed instruction. (Count)
system.cpu10.commitStats0.committedInstType::SimdFloatExt            0      0.00%    100.00% # Class of committed instruction. (Count)
system.cpu10.commitStats0.committedInstType::SimdConfig            0      0.00%    100.00% # Class of committed instruction. (Count)
system.cpu10.commitStats0.committedInstType::total       350065                       # Class of committed instruction. (Count)
system.cpu10.commitStats0.committedControl::IsControl        72186                       # Class of control type instructions committed (Count)
system.cpu10.commitStats0.committedControl::IsDirectControl        71938                       # Class of control type instructions committed (Count)
system.cpu10.commitStats0.committedControl::IsIndirectControl          248                       # Class of control type instructions committed (Count)
system.cpu10.commitStats0.committedControl::IsCondControl        51650                       # Class of control type instructions committed (Count)
system.cpu10.commitStats0.committedControl::IsUncondControl        20536                       # Class of control type instructions committed (Count)
system.cpu10.commitStats0.committedControl::IsCall          180                       # Class of control type instructions committed (Count)
system.cpu10.commitStats0.committedControl::IsReturn          175                       # Class of control type instructions committed (Count)
system.cpu10.exec_context.thread_0.numMatAluAccesses            0                       # Number of matrix alu accesses (Count)
system.cpu10.exec_context.thread_0.numCallsReturns          355                       # Number of times a function call or return occured (Count)
system.cpu10.exec_context.thread_0.numMatInsts            0                       # Number of matrix instructions (Count)
system.cpu10.exec_context.thread_0.numIdleCycles     0.002000                       # Number of idle cycles (Cycle)
system.cpu10.exec_context.thread_0.numBusyCycles 6033243.998000                       # Number of busy cycles (Cycle)
system.cpu10.exec_context.thread_0.notIdleFraction     1.000000                       # Percentage of non-idle cycles (Ratio)
system.cpu10.exec_context.thread_0.idleFraction     0.000000                       # Percentage of idle cycles (Ratio)
system.cpu10.executeStats0.numInsts                 0                       # Number of executed instructions (Count)
system.cpu10.executeStats0.numNop                   0                       # Number of nop insts executed (Count)
system.cpu10.executeStats0.numBranches              0                       # Number of branches executed (Count)
system.cpu10.executeStats0.numLoadInsts             0                       # Number of load instructions executed (Count)
system.cpu10.executeStats0.numStoreInsts        23895                       # Number of stores executed (Count)
system.cpu10.executeStats0.instRate                 0                       # Inst execution rate ((Count/Cycle))
system.cpu10.executeStats0.numFpAluAccesses         1354                       # Number of float alu accesses (Count)
system.cpu10.executeStats0.numFpRegReads         1462                       # Number of times the floating registers were read (Count)
system.cpu10.executeStats0.numFpRegWrites          785                       # Number of times the floating registers were written (Count)
system.cpu10.executeStats0.numIntAluAccesses       349204                       # Number of integer alu accesses (Count)
system.cpu10.executeStats0.numIntRegReads       321214                       # Number of times the integer registers were read (Count)
system.cpu10.executeStats0.numIntRegWrites       213508                       # Number of times the integer registers were written (Count)
system.cpu10.executeStats0.numMemRefs           23895                       # Number of memory refs (Count)
system.cpu10.executeStats0.numMiscRegReads       168482                       # Number of times the Misc registers were read (Count)
system.cpu10.executeStats0.numVecAluAccesses            0                       # Number of vector alu accesses (Count)
system.cpu10.executeStats0.numDiscardedOps            0                       # Number of ops (including micro ops) which were discarded before commit (Count)
system.cpu10.fetchStats0.numInsts              170382                       # Number of instructions fetched (thread level) (Count)
system.cpu10.fetchStats0.numOps                350065                       # Number of ops (including micro ops) fetched (thread level) (Count)
system.cpu10.fetchStats0.fetchRate           0.028241                       # Number of inst fetches per cycle ((Count/Cycle))
system.cpu10.fetchStats0.numBranches            72186                       # Number of branches fetched (Count)
system.cpu10.fetchStats0.branchRate          0.011965                       # Number of branch fetches per cycle (Ratio)
system.cpu10.fetchStats0.numFetchSuspends            0                       # Number of times Execute suspended instruction fetching (Count)
system.cpu10.interrupts.clk_domain.clock         8000                       # Clock period in ticks (Tick)
system.cpu10.mmu.dtb.rdAccesses                 12006                       # TLB accesses on read requests (Count)
system.cpu10.mmu.dtb.wrAccesses                 11893                       # TLB accesses on write requests (Count)
system.cpu10.mmu.dtb.rdMisses                      17                       # TLB misses on read requests (Count)
system.cpu10.mmu.dtb.wrMisses                       9                       # TLB misses on write requests (Count)
system.cpu10.mmu.dtb.walker.power_state.pwrStateResidencyTicks::UNDEFINED   3016622000                       # Cumulative time (in ticks) in various power states (Tick)
system.cpu10.mmu.itb.rdAccesses                     0                       # TLB accesses on read requests (Count)
system.cpu10.mmu.itb.wrAccesses                233826                       # TLB accesses on write requests (Count)
system.cpu10.mmu.itb.rdMisses                       0                       # TLB misses on read requests (Count)
system.cpu10.mmu.itb.wrMisses                      46                       # TLB misses on write requests (Count)
system.cpu10.mmu.itb.walker.power_state.pwrStateResidencyTicks::UNDEFINED   3016622000                       # Cumulative time (in ticks) in various power states (Tick)
system.cpu10.power_state.pwrStateResidencyTicks::ON   3016622000                       # Cumulative time (in ticks) in various power states (Tick)
system.cpu10.thread_0.numInsts                      0                       # Number of Instructions committed (Count)
system.cpu10.thread_0.numOps                        0                       # Number of Ops committed (Count)
system.cpu10.thread_0.numMemRefs                    0                       # Number of Memory References (Count)
system.cpu10.workload.numSyscalls                  15                       # Number of system calls (Count)
system.cpu11.numCycles                        6032000                       # Number of cpu cycles simulated (Cycle)
system.cpu11.cpi                            35.395322                       # CPI: cycles per instruction (core level) ((Cycle/Count))
system.cpu11.ipc                             0.028252                       # IPC: instructions per cycle (core level) ((Count/Cycle))
system.cpu11.numWorkItemsStarted                    0                       # Number of work items this cpu started (Count)
system.cpu11.numWorkItemsCompleted                  0                       # Number of work items this cpu completed (Count)
system.cpu11.commitStats0.numInsts             170418                       # Number of instructions committed (thread level) (Count)
system.cpu11.commitStats0.numOps               350147                       # Number of ops (including micro ops) committed (thread level) (Count)
system.cpu11.commitStats0.numInstsNotNOP            0                       # Number of instructions committed excluding NOPs or prefetches (Count)
system.cpu11.commitStats0.numOpsNotNOP              0                       # Number of Ops (including micro ops) Simulated (Count)
system.cpu11.commitStats0.cpi               35.395322                       # CPI: cycles per instruction (thread level) ((Cycle/Count))
system.cpu11.commitStats0.ipc                0.028252                       # IPC: instructions per cycle (thread level) ((Count/Cycle))
system.cpu11.commitStats0.numMemRefs                0                       # Number of memory references committed (Count)
system.cpu11.commitStats0.numFpInsts             1354                       # Number of float instructions (Count)
system.cpu11.commitStats0.numIntInsts          349287                       # Number of integer instructions (Count)
system.cpu11.commitStats0.numLoadInsts          12007                       # Number of load instructions (Count)
system.cpu11.commitStats0.numStoreInsts         11895                       # Number of store instructions (Count)
system.cpu11.commitStats0.numVecInsts               0                       # Number of vector instructions (Count)
system.cpu11.commitStats0.committedInstType::No_OpClass          209      0.06%      0.06% # Class of committed instruction. (Count)
system.cpu11.commitStats0.committedInstType::IntAlu       325448     92.95%     93.01% # Class of committed instruction. (Count)
system.cpu11.commitStats0.committedInstType::IntMult           14      0.00%     93.01% # Class of committed instruction. (Count)
system.cpu11.commitStats0.committedInstType::IntDiv           21      0.01%     93.02% # Class of committed instruction. (Count)
system.cpu11.commitStats0.committedInstType::FloatAdd          172      0.05%     93.06% # Class of committed instruction. (Count)
system.cpu11.commitStats0.committedInstType::FloatCmp            0      0.00%     93.06% # Class of committed instruction. (Count)
system.cpu11.commitStats0.committedInstType::FloatCvt            0      0.00%     93.06% # Class of committed instruction. (Count)
system.cpu11.commitStats0.committedInstType::FloatMult            0      0.00%     93.06% # Class of committed instruction. (Count)
system.cpu11.commitStats0.committedInstType::FloatMultAcc            0      0.00%     93.06% # Class of committed instruction. (Count)
system.cpu11.commitStats0.committedInstType::FloatDiv            0      0.00%     93.06% # Class of committed instruction. (Count)
system.cpu11.commitStats0.committedInstType::FloatMisc            0      0.00%     93.06% # Class of committed instruction. (Count)
system.cpu11.commitStats0.committedInstType::FloatSqrt            0      0.00%     93.06% # Class of committed instruction. (Count)
system.cpu11.commitStats0.committedInstType::SimdAdd            8      0.00%     93.07% # Class of committed instruction. (Count)
system.cpu11.commitStats0.committedInstType::SimdAddAcc            0      0.00%     93.07% # Class of committed instruction. (Count)
system.cpu11.commitStats0.committedInstType::SimdAlu           96      0.03%     93.09% # Class of committed instruction. (Count)
system.cpu11.commitStats0.committedInstType::SimdCmp            0      0.00%     93.09% # Class of committed instruction. (Count)
system.cpu11.commitStats0.committedInstType::SimdCvt           48      0.01%     93.11% # Class of committed instruction. (Count)
system.cpu11.commitStats0.committedInstType::SimdMisc          229      0.07%     93.17% # Class of committed instruction. (Count)
system.cpu11.commitStats0.committedInstType::SimdMult            0      0.00%     93.17% # Class of committed instruction. (Count)
system.cpu11.commitStats0.committedInstType::SimdMultAcc            0      0.00%     93.17% # Class of committed instruction. (Count)
system.cpu11.commitStats0.committedInstType::SimdMatMultAcc            0      0.00%     93.17% # Class of committed instruction. (Count)
system.cpu11.commitStats0.committedInstType::SimdShift            0      0.00%     93.17% # Class of committed instruction. (Count)
system.cpu11.commitStats0.committedInstType::SimdShiftAcc            0      0.00%     93.17% # Class of committed instruction. (Count)
system.cpu11.commitStats0.committedInstType::SimdDiv            0      0.00%     93.17% # Class of committed instruction. (Count)
system.cpu11.commitStats0.committedInstType::SimdSqrt            0      0.00%     93.17% # Class of committed instruction. (Count)
system.cpu11.commitStats0.committedInstType::SimdFloatAdd            0      0.00%     93.17% # Class of committed instruction. (Count)
system.cpu11.commitStats0.committedInstType::SimdFloatAlu            0      0.00%     93.17% # Class of committed instruction. (Count)
system.cpu11.commitStats0.committedInstType::SimdFloatCmp            0      0.00%     93.17% # Class of committed instruction. (Count)
system.cpu11.commitStats0.committedInstType::SimdFloatCvt            0      0.00%     93.17% # Class of committed instruction. (Count)
system.cpu11.commitStats0.committedInstType::SimdFloatDiv            0      0.00%     93.17% # Class of committed instruction. (Count)
system.cpu11.commitStats0.committedInstType::SimdFloatMisc            0      0.00%     93.17% # Class of committed instruction. (Count)
system.cpu11.commitStats0.committedInstType::SimdFloatMult            0      0.00%     93.17% # Class of committed instruction. (Count)
system.cpu11.commitStats0.committedInstType::SimdFloatMultAcc            0      0.00%     93.17% # Class of committed instruction. (Count)
system.cpu11.commitStats0.committedInstType::SimdFloatMatMultAcc            0      0.00%     93.17% # Class of committed instruction. (Count)
system.cpu11.commitStats0.committedInstType::SimdFloatSqrt            0      0.00%     93.17% # Class of committed instruction. (Count)
system.cpu11.commitStats0.committedInstType::SimdReduceAdd            0      0.00%     93.17% # Class of committed instruction. (Count)
system.cpu11.commitStats0.committedInstType::SimdReduceAlu            0      0.00%     93.17% # Class of committed instruction. (Count)
system.cpu11.commitStats0.committedInstType::SimdReduceCmp            0      0.00%     93.17% # Class of committed instruction. (Count)
system.cpu11.commitStats0.committedInstType::SimdFloatReduceAdd            0      0.00%     93.17% # Class of committed instruction. (Count)
system.cpu11.commitStats0.committedInstType::SimdFloatReduceCmp            0      0.00%     93.17% # Class of committed instruction. (Count)
system.cpu11.commitStats0.committedInstType::SimdAes            0      0.00%     93.17% # Class of committed instruction. (Count)
system.cpu11.commitStats0.committedInstType::SimdAesMix            0      0.00%     93.17% # Class of committed instruction. (Count)
system.cpu11.commitStats0.committedInstType::SimdSha1Hash            0      0.00%     93.17% # Class of committed instruction. (Count)
system.cpu11.commitStats0.committedInstType::SimdSha1Hash2            0      0.00%     93.17% # Class of committed instruction. (Count)
system.cpu11.commitStats0.committedInstType::SimdSha256Hash            0      0.00%     93.17% # Class of committed instruction. (Count)
system.cpu11.commitStats0.committedInstType::SimdSha256Hash2            0      0.00%     93.17% # Class of committed instruction. (Count)
system.cpu11.commitStats0.committedInstType::SimdShaSigma2            0      0.00%     93.17% # Class of committed instruction. (Count)
system.cpu11.commitStats0.committedInstType::SimdShaSigma3            0      0.00%     93.17% # Class of committed instruction. (Count)
system.cpu11.commitStats0.committedInstType::SimdPredAlu            0      0.00%     93.17% # Class of committed instruction. (Count)
system.cpu11.commitStats0.committedInstType::Matrix            0      0.00%     93.17% # Class of committed instruction. (Count)
system.cpu11.commitStats0.committedInstType::MatrixMov            0      0.00%     93.17% # Class of committed instruction. (Count)
system.cpu11.commitStats0.committedInstType::MatrixOP            0      0.00%     93.17% # Class of committed instruction. (Count)
system.cpu11.commitStats0.committedInstType::MemRead        11886      3.39%     96.57% # Class of committed instruction. (Count)
system.cpu11.commitStats0.committedInstType::MemWrite        11372      3.25%     99.82% # Class of committed instruction. (Count)
system.cpu11.commitStats0.committedInstType::FloatMemRead          121      0.03%     99.85% # Class of committed instruction. (Count)
system.cpu11.commitStats0.committedInstType::FloatMemWrite          523      0.15%    100.00% # Class of committed instruction. (Count)
system.cpu11.commitStats0.committedInstType::IprAccess            0      0.00%    100.00% # Class of committed instruction. (Count)
system.cpu11.commitStats0.committedInstType::InstPrefetch            0      0.00%    100.00% # Class of committed instruction. (Count)
system.cpu11.commitStats0.committedInstType::SimdUnitStrideLoad            0      0.00%    100.00% # Class of committed instruction. (Count)
system.cpu11.commitStats0.committedInstType::SimdUnitStrideStore            0      0.00%    100.00% # Class of committed instruction. (Count)
system.cpu11.commitStats0.committedInstType::SimdUnitStrideMaskLoad            0      0.00%    100.00% # Class of committed instruction. (Count)
system.cpu11.commitStats0.committedInstType::SimdUnitStrideMaskStore            0      0.00%    100.00% # Class of committed instruction. (Count)
system.cpu11.commitStats0.committedInstType::SimdStridedLoad            0      0.00%    100.00% # Class of committed instruction. (Count)
system.cpu11.commitStats0.committedInstType::SimdStridedStore            0      0.00%    100.00% # Class of committed instruction. (Count)
system.cpu11.commitStats0.committedInstType::SimdIndexedLoad            0      0.00%    100.00% # Class of committed instruction. (Count)
system.cpu11.commitStats0.committedInstType::SimdIndexedStore            0      0.00%    100.00% # Class of committed instruction. (Count)
system.cpu11.commitStats0.committedInstType::SimdWholeRegisterLoad            0      0.00%    100.00% # Class of committed instruction. (Count)
system.cpu11.commitStats0.committedInstType::SimdWholeRegisterStore            0      0.00%    100.00% # Class of committed instruction. (Count)
system.cpu11.commitStats0.committedInstType::SimdUnitStrideFaultOnlyFirstLoad            0      0.00%    100.00% # Class of committed instruction. (Count)
system.cpu11.commitStats0.committedInstType::SimdUnitStrideSegmentedLoad            0      0.00%    100.00% # Class of committed instruction. (Count)
system.cpu11.commitStats0.committedInstType::SimdUnitStrideSegmentedStore            0      0.00%    100.00% # Class of committed instruction. (Count)
system.cpu11.commitStats0.committedInstType::SimdUnitStrideSegmentedFaultOnlyFirstLoad            0      0.00%    100.00% # Class of committed instruction. (Count)
system.cpu11.commitStats0.committedInstType::SimdStrideSegmentedLoad            0      0.00%    100.00% # Class of committed instruction. (Count)
system.cpu11.commitStats0.committedInstType::SimdStrideSegmentedStore            0      0.00%    100.00% # Class of committed instruction. (Count)
system.cpu11.commitStats0.committedInstType::SimdExt            0      0.00%    100.00% # Class of committed instruction. (Count)
system.cpu11.commitStats0.committedInstType::SimdFloatExt            0      0.00%    100.00% # Class of committed instruction. (Count)
system.cpu11.commitStats0.committedInstType::SimdConfig            0      0.00%    100.00% # Class of committed instruction. (Count)
system.cpu11.commitStats0.committedInstType::total       350147                       # Class of committed instruction. (Count)
system.cpu11.commitStats0.committedControl::IsControl        72197                       # Class of control type instructions committed (Count)
system.cpu11.commitStats0.committedControl::IsDirectControl        71949                       # Class of control type instructions committed (Count)
system.cpu11.commitStats0.committedControl::IsIndirectControl          248                       # Class of control type instructions committed (Count)
system.cpu11.commitStats0.committedControl::IsCondControl        51661                       # Class of control type instructions committed (Count)
system.cpu11.commitStats0.committedControl::IsUncondControl        20536                       # Class of control type instructions committed (Count)
system.cpu11.commitStats0.committedControl::IsCall          180                       # Class of control type instructions committed (Count)
system.cpu11.commitStats0.committedControl::IsReturn          175                       # Class of control type instructions committed (Count)
system.cpu11.exec_context.thread_0.numMatAluAccesses            0                       # Number of matrix alu accesses (Count)
system.cpu11.exec_context.thread_0.numCallsReturns          355                       # Number of times a function call or return occured (Count)
system.cpu11.exec_context.thread_0.numMatInsts            0                       # Number of matrix instructions (Count)
system.cpu11.exec_context.thread_0.numIdleCycles  1243.745498                       # Number of idle cycles (Cycle)
system.cpu11.exec_context.thread_0.numBusyCycles 6030756.254502                       # Number of busy cycles (Cycle)
system.cpu11.exec_context.thread_0.notIdleFraction     0.999794                       # Percentage of non-idle cycles (Ratio)
system.cpu11.exec_context.thread_0.idleFraction     0.000206                       # Percentage of idle cycles (Ratio)
system.cpu11.executeStats0.numInsts                 0                       # Number of executed instructions (Count)
system.cpu11.executeStats0.numNop                   0                       # Number of nop insts executed (Count)
system.cpu11.executeStats0.numBranches              0                       # Number of branches executed (Count)
system.cpu11.executeStats0.numLoadInsts             0                       # Number of load instructions executed (Count)
system.cpu11.executeStats0.numStoreInsts        23902                       # Number of stores executed (Count)
system.cpu11.executeStats0.instRate                 0                       # Inst execution rate ((Count/Cycle))
system.cpu11.executeStats0.numFpAluAccesses         1354                       # Number of float alu accesses (Count)
system.cpu11.executeStats0.numFpRegReads         1462                       # Number of times the floating registers were read (Count)
system.cpu11.executeStats0.numFpRegWrites          785                       # Number of times the floating registers were written (Count)
system.cpu11.executeStats0.numIntAluAccesses       349287                       # Number of integer alu accesses (Count)
system.cpu11.executeStats0.numIntRegReads       321267                       # Number of times the integer registers were read (Count)
system.cpu11.executeStats0.numIntRegWrites       213567                       # Number of times the integer registers were written (Count)
system.cpu11.executeStats0.numMemRefs           23902                       # Number of memory refs (Count)
system.cpu11.executeStats0.numMiscRegReads       168511                       # Number of times the Misc registers were read (Count)
system.cpu11.executeStats0.numVecAluAccesses            0                       # Number of vector alu accesses (Count)
system.cpu11.executeStats0.numDiscardedOps            0                       # Number of ops (including micro ops) which were discarded before commit (Count)
system.cpu11.fetchStats0.numInsts              170418                       # Number of instructions fetched (thread level) (Count)
system.cpu11.fetchStats0.numOps                350147                       # Number of ops (including micro ops) fetched (thread level) (Count)
system.cpu11.fetchStats0.fetchRate           0.028252                       # Number of inst fetches per cycle ((Count/Cycle))
system.cpu11.fetchStats0.numBranches            72197                       # Number of branches fetched (Count)
system.cpu11.fetchStats0.branchRate          0.011969                       # Number of branch fetches per cycle (Ratio)
system.cpu11.fetchStats0.numFetchSuspends            0                       # Number of times Execute suspended instruction fetching (Count)
system.cpu11.interrupts.clk_domain.clock         8000                       # Clock period in ticks (Tick)
system.cpu11.mmu.dtb.rdAccesses                 12011                       # TLB accesses on read requests (Count)
system.cpu11.mmu.dtb.wrAccesses                 11895                       # TLB accesses on write requests (Count)
system.cpu11.mmu.dtb.rdMisses                      17                       # TLB misses on read requests (Count)
system.cpu11.mmu.dtb.wrMisses                       9                       # TLB misses on write requests (Count)
system.cpu11.mmu.dtb.walker.power_state.pwrStateResidencyTicks::UNDEFINED   3016622000                       # Cumulative time (in ticks) in various power states (Tick)
system.cpu11.mmu.itb.rdAccesses                     0                       # TLB accesses on read requests (Count)
system.cpu11.mmu.itb.wrAccesses                233874                       # TLB accesses on write requests (Count)
system.cpu11.mmu.itb.rdMisses                       0                       # TLB misses on read requests (Count)
system.cpu11.mmu.itb.wrMisses                      46                       # TLB misses on write requests (Count)
system.cpu11.mmu.itb.walker.power_state.pwrStateResidencyTicks::UNDEFINED   3016622000                       # Cumulative time (in ticks) in various power states (Tick)
system.cpu11.power_state.pwrStateResidencyTicks::ON   3016622000                       # Cumulative time (in ticks) in various power states (Tick)
system.cpu11.thread_0.numInsts                      0                       # Number of Instructions committed (Count)
system.cpu11.thread_0.numOps                        0                       # Number of Ops committed (Count)
system.cpu11.thread_0.numMemRefs                    0                       # Number of Memory References (Count)
system.cpu11.workload.numSyscalls                  15                       # Number of system calls (Count)
system.cpu12.numCycles                        6032065                       # Number of cpu cycles simulated (Cycle)
system.cpu12.cpi                            35.392588                       # CPI: cycles per instruction (core level) ((Cycle/Count))
system.cpu12.ipc                             0.028255                       # IPC: instructions per cycle (core level) ((Count/Cycle))
system.cpu12.numWorkItemsStarted                    0                       # Number of work items this cpu started (Count)
system.cpu12.numWorkItemsCompleted                  0                       # Number of work items this cpu completed (Count)
system.cpu12.commitStats0.numInsts             170433                       # Number of instructions committed (thread level) (Count)
[...]
system.ruby.network.routers7.port_buffers7.m_stall_time     10647500                       # Total number of ticks messages were stalled in this buffer (Tick)
system.ruby.network.routers7.port_buffers7.m_avg_stall_time   502.572454                       # Average stall ticks per message ((Tick/Count))
system.ruby.network.routers7.port_buffers9.m_msg_count        20113                       # Number of messages passed the buffer (Count)
system.ruby.network.routers7.port_buffers9.m_buf_msgs     0.003334                       # Average number of messages in buffer ((Count/Tick))
system.ruby.network.routers7.power_state.pwrStateResidencyTicks::UNDEFINED   3016622000                       # Cumulative time (in ticks) in various power states (Tick)
system.ruby.network.routers7.throttle00.acc_link_utilization 104257.500000                       # Accumulated link utilization system.ruby.network.ext_links07 (Count)
system.ruby.network.routers7.throttle00.link_utilization     1.728050                       # Average link utilization (Ratio)
system.ruby.network.routers7.throttle00.total_msg_count        41299                       # Total number of messages forwarded by this switch (Count)
system.ruby.network.routers7.throttle00.total_msg_bytes      1668120                       # Total number of bytes forwarded by this switch (Byte)
system.ruby.network.routers7.throttle00.total_data_msg_bytes      1337728                       # Total number of data bytes forwarded by this switch (Byte)
system.ruby.network.routers7.throttle00.total_msg_wait_time            0                       # Total time spend forwarding messages (Tick)
system.ruby.network.routers7.throttle00.total_stall_cy            0                       # Total time spent blocked on any output link (Cycle)
system.ruby.network.routers7.throttle00.total_bw_sat_cy        83608                       # Total time bandwidth was saturated on any output link (Cycle)
system.ruby.network.routers7.throttle00.avg_msg_wait_time            0                       # Average time a message took to be forwarded (Ratio)
system.ruby.network.routers7.throttle00.avg_bandwidth         0.51                       # Average bandwidth (GB/s) (Ratio)
system.ruby.network.routers7.throttle00.avg_useful_bandwidth         0.41                       # Average useful (only data) bandwidth (GB/s) (Ratio)
system.ruby.network.routers7.throttle00.msg_count.Response_Data::4        20902                       (Unspecified)
system.ruby.network.routers7.throttle00.msg_bytes.Response_Data::4      1504944                       (Unspecified)
system.ruby.network.routers7.throttle00.msg_count.Writeback_Control::3        20397                       (Unspecified)
system.ruby.network.routers7.throttle00.msg_bytes.Writeback_Control::3       163176                       (Unspecified)
system.ruby.network.routers7.throttle01.acc_link_utilization 102237.500000                       # Accumulated link utilization system.ruby.network.int_links07 (Count)
system.ruby.network.routers7.throttle01.link_utilization     1.694569                       # Average link utilization (Ratio)
system.ruby.network.routers7.throttle01.total_msg_count        41299                       # Total number of messages forwarded by this switch (Count)
system.ruby.network.routers7.throttle01.total_msg_bytes      1635800                       # Total number of bytes forwarded by this switch (Byte)
system.ruby.network.routers7.throttle01.total_data_msg_bytes      1305408                       # Total number of data bytes forwarded by this switch (Byte)
system.ruby.network.routers7.throttle01.total_msg_wait_time     10647500                       # Total time spend forwarding messages (Tick)
system.ruby.network.routers7.throttle01.total_stall_cy            0                       # Total time spent blocked on any output link (Cycle)
system.ruby.network.routers7.throttle01.total_bw_sat_cy        81591                       # Total time bandwidth was saturated on any output link (Cycle)
system.ruby.network.routers7.throttle01.avg_msg_wait_time   257.814959                       # Average time a message took to be forwarded (Ratio)
system.ruby.network.routers7.throttle01.avg_bandwidth         0.51                       # Average bandwidth (GB/s) (Ratio)
system.ruby.network.routers7.throttle01.avg_useful_bandwidth         0.40                       # Average useful (only data) bandwidth (GB/s) (Ratio)
system.ruby.network.routers7.throttle01.msg_count.Control::2        20902                       (Unspecified)
system.ruby.network.routers7.throttle01.msg_bytes.Control::2       167216                       (Unspecified)
system.ruby.network.routers7.throttle01.msg_count.Data::2          284                       (Unspecified)
system.ruby.network.routers7.throttle01.msg_bytes.Data::2        20448                       (Unspecified)
system.ruby.network.routers7.throttle01.msg_count.Response_Data::4        20113                       (Unspecified)
system.ruby.network.routers7.throttle01.msg_bytes.Response_Data::4      1448136                       (Unspecified)
system.ruby.network.routers8.percent_links_utilized     1.711517                       (Unspecified)
system.ruby.network.routers8.msg_count.Control::2        20905                       (Unspecified)
system.ruby.network.routers8.msg_bytes.Control::2       167240                       (Unspecified)
system.ruby.network.routers8.msg_count.Data::2          285                       (Unspecified)
system.ruby.network.routers8.msg_bytes.Data::2        20520                       (Unspecified)
system.ruby.network.routers8.msg_count.Response_Data::4        41019                       (Unspecified)
system.ruby.network.routers8.msg_bytes.Response_Data::4      2953368                       (Unspecified)
system.ruby.network.routers8.msg_count.Writeback_Control::3        20399                       (Unspecified)
system.ruby.network.routers8.msg_bytes.Writeback_Control::3       163192                       (Unspecified)
system.ruby.network.routers8.port_buffers3.m_msg_count        20399                       # Number of messages passed the buffer (Count)
system.ruby.network.routers8.port_buffers3.m_buf_msgs     0.003381                       # Average number of messages in buffer ((Count/Tick))
system.ruby.network.routers8.port_buffers4.m_msg_count        20905                       # Number of messages passed the buffer (Count)
system.ruby.network.routers8.port_buffers4.m_buf_msgs     0.003465                       # Average number of messages in buffer ((Count/Tick))
system.ruby.network.routers8.port_buffers7.m_msg_count        21190                       # Number of messages passed the buffer (Count)
system.ruby.network.routers8.port_buffers7.m_buf_msgs     0.007044                       # Average number of messages in buffer ((Count/Tick))
system.ruby.network.routers8.port_buffers7.m_stall_time     10653000                       # Total number of ticks messages were stalled in this buffer (Tick)
system.ruby.network.routers8.port_buffers7.m_avg_stall_time   502.737140                       # Average stall ticks per message ((Tick/Count))
system.ruby.network.routers8.port_buffers9.m_msg_count        20114                       # Number of messages passed the buffer (Count)
system.ruby.network.routers8.port_buffers9.m_buf_msgs     0.003334                       # Average number of messages in buffer ((Count/Tick))
system.ruby.network.routers8.power_state.pwrStateResidencyTicks::UNDEFINED   3016622000                       # Cumulative time (in ticks) in various power states (Tick)
system.ruby.network.routers8.throttle00.acc_link_utilization       104272                       # Accumulated link utilization system.ruby.network.ext_links08 (Count)
system.ruby.network.routers8.throttle00.link_utilization     1.728291                       # Average link utilization (Ratio)
system.ruby.network.routers8.throttle00.total_msg_count        41304                       # Total number of messages forwarded by this switch (Count)
system.ruby.network.routers8.throttle00.total_msg_bytes      1668352                       # Total number of bytes forwarded by this switch (Byte)
system.ruby.network.routers8.throttle00.total_data_msg_bytes      1337920                       # Total number of data bytes forwarded by this switch (Byte)
system.ruby.network.routers8.throttle00.total_msg_wait_time            0                       # Total time spend forwarding messages (Tick)
system.ruby.network.routers8.throttle00.total_stall_cy            0                       # Total time spent blocked on any output link (Cycle)
system.ruby.network.routers8.throttle00.total_bw_sat_cy        83620                       # Total time bandwidth was saturated on any output link (Cycle)
system.ruby.network.routers8.throttle00.avg_msg_wait_time            0                       # Average time a message took to be forwarded (Ratio)
system.ruby.network.routers8.throttle00.avg_bandwidth         0.52                       # Average bandwidth (GB/s) (Ratio)
system.ruby.network.routers8.throttle00.avg_useful_bandwidth         0.41                       # Average useful (only data) bandwidth (GB/s) (Ratio)
system.ruby.network.routers8.throttle00.msg_count.Response_Data::4        20905                       (Unspecified)
system.ruby.network.routers8.throttle00.msg_bytes.Response_Data::4      1505160                       (Unspecified)
system.ruby.network.routers8.throttle00.msg_count.Writeback_Control::3        20399                       (Unspecified)
system.ruby.network.routers8.throttle00.msg_bytes.Writeback_Control::3       163192                       (Unspecified)
system.ruby.network.routers8.throttle01.acc_link_utilization       102248                       # Accumulated link utilization system.ruby.network.int_links08 (Count)
system.ruby.network.routers8.throttle01.link_utilization     1.694743                       # Average link utilization (Ratio)
system.ruby.network.routers8.throttle01.total_msg_count        41304                       # Total number of messages forwarded by this switch (Count)
system.ruby.network.routers8.throttle01.total_msg_bytes      1635968                       # Total number of bytes forwarded by this switch (Byte)
system.ruby.network.routers8.throttle01.total_data_msg_bytes      1305536                       # Total number of data bytes forwarded by this switch (Byte)
system.ruby.network.routers8.throttle01.total_msg_wait_time     10653000                       # Total time spend forwarding messages (Tick)
system.ruby.network.routers8.throttle01.total_stall_cy            0                       # Total time spent blocked on any output link (Cycle)
system.ruby.network.routers8.throttle01.total_bw_sat_cy        81599                       # Total time bandwidth was saturated on any output link (Cycle)
system.ruby.network.routers8.throttle01.avg_msg_wait_time   257.916909                       # Average time a message took to be forwarded (Ratio)
system.ruby.network.routers8.throttle01.avg_bandwidth         0.51                       # Average bandwidth (GB/s) (Ratio)
system.ruby.network.routers8.throttle01.avg_useful_bandwidth         0.40                       # Average useful (only data) bandwidth (GB/s) (Ratio)
system.ruby.network.routers8.throttle01.msg_count.Control::2        20905                       (Unspecified)
system.ruby.network.routers8.throttle01.msg_bytes.Control::2       167240                       (Unspecified)
system.ruby.network.routers8.throttle01.msg_count.Data::2          285                       (Unspecified)
system.ruby.network.routers8.throttle01.msg_bytes.Data::2        20520                       (Unspecified)
system.ruby.network.routers8.throttle01.msg_count.Response_Data::4        20114                       (Unspecified)
system.ruby.network.routers8.throttle01.msg_bytes.Response_Data::4      1448208                       (Unspecified)
system.ruby.network.routers9.percent_links_utilized     1.713133                       (Unspecified)
system.ruby.network.routers9.msg_count.Control::2        20924                       (Unspecified)
system.ruby.network.routers9.msg_bytes.Control::2       167392                       (Unspecified)
system.ruby.network.routers9.msg_count.Data::2          284                       (Unspecified)
system.ruby.network.routers9.msg_bytes.Data::2        20448                       (Unspecified)
system.ruby.network.routers9.msg_count.Response_Data::4        41059                       (Unspecified)
system.ruby.network.routers9.msg_bytes.Response_Data::4      2956248                       (Unspecified)
system.ruby.network.routers9.msg_count.Writeback_Control::3        20419                       (Unspecified)
system.ruby.network.routers9.msg_bytes.Writeback_Control::3       163352                       (Unspecified)
system.ruby.network.routers9.port_buffers3.m_msg_count        20419                       # Number of messages passed the buffer (Count)
system.ruby.network.routers9.port_buffers3.m_buf_msgs     0.003384                       # Average number of messages in buffer ((Count/Tick))
system.ruby.network.routers9.port_buffers4.m_msg_count        20924                       # Number of messages passed the buffer (Count)
system.ruby.network.routers9.port_buffers4.m_buf_msgs     0.003468                       # Average number of messages in buffer ((Count/Tick))
system.ruby.network.routers9.port_buffers7.m_msg_count        21208                       # Number of messages passed the buffer (Count)
system.ruby.network.routers9.port_buffers7.m_buf_msgs     0.007060                       # Average number of messages in buffer ((Count/Tick))
system.ruby.network.routers9.port_buffers7.m_stall_time     10693500                       # Total number of ticks messages were stalled in this buffer (Tick)
system.ruby.network.routers9.port_buffers7.m_avg_stall_time   504.220106                       # Average stall ticks per message ((Tick/Count))
system.ruby.network.routers9.port_buffers9.m_msg_count        20135                       # Number of messages passed the buffer (Count)
system.ruby.network.routers9.port_buffers9.m_buf_msgs     0.003338                       # Average number of messages in buffer ((Count/Tick))
system.ruby.network.routers9.port_buffers9.m_stall_time          500                       # Total number of ticks messages were stalled in this buffer (Tick)
system.ruby.network.routers9.port_buffers9.m_avg_stall_time     0.024832                       # Average stall ticks per message ((Tick/Count))
system.ruby.network.routers9.power_state.pwrStateResidencyTicks::UNDEFINED   3016622000                       # Cumulative time (in ticks) in various power states (Tick)
system.ruby.network.routers9.throttle00.acc_link_utilization 104367.500000                       # Accumulated link utilization system.ruby.network.ext_links09 (Count)
system.ruby.network.routers9.throttle00.link_utilization     1.729874                       # Average link utilization (Ratio)
system.ruby.network.routers9.throttle00.total_msg_count        41343                       # Total number of messages forwarded by this switch (Count)
system.ruby.network.routers9.throttle00.total_msg_bytes      1669880                       # Total number of bytes forwarded by this switch (Byte)
system.ruby.network.routers9.throttle00.total_data_msg_bytes      1339136                       # Total number of data bytes forwarded by this switch (Byte)
system.ruby.network.routers9.throttle00.total_msg_wait_time            0                       # Total time spend forwarding messages (Tick)
system.ruby.network.routers9.throttle00.total_stall_cy            0                       # Total time spent blocked on any output link (Cycle)
system.ruby.network.routers9.throttle00.total_bw_sat_cy        83696                       # Total time bandwidth was saturated on any output link (Cycle)
system.ruby.network.routers9.throttle00.avg_msg_wait_time            0                       # Average time a message took to be forwarded (Ratio)
system.ruby.network.routers9.throttle00.avg_bandwidth         0.52                       # Average bandwidth (GB/s) (Ratio)
system.ruby.network.routers9.throttle00.avg_useful_bandwidth         0.41                       # Average useful (only data) bandwidth (GB/s) (Ratio)
system.ruby.network.routers9.throttle00.msg_count.Response_Data::4        20924                       (Unspecified)
system.ruby.network.routers9.throttle00.msg_bytes.Response_Data::4      1506528                       (Unspecified)
system.ruby.network.routers9.throttle00.msg_count.Writeback_Control::3        20419                       (Unspecified)
system.ruby.network.routers9.throttle00.msg_bytes.Writeback_Control::3       163352                       (Unspecified)
system.ruby.network.routers9.throttle01.acc_link_utilization 102347.500000                       # Accumulated link utilization system.ruby.network.int_links09 (Count)
system.ruby.network.routers9.throttle01.link_utilization     1.696393                       # Average link utilization (Ratio)
system.ruby.network.routers9.throttle01.total_msg_count        41343                       # Total number of messages forwarded by this switch (Count)
system.ruby.network.routers9.throttle01.total_msg_bytes      1637560                       # Total number of bytes forwarded by this switch (Byte)
system.ruby.network.routers9.throttle01.total_data_msg_bytes      1306816                       # Total number of data bytes forwarded by this switch (Byte)
system.ruby.network.routers9.throttle01.total_msg_wait_time     10694000                       # Total time spend forwarding messages (Tick)
system.ruby.network.routers9.throttle01.total_stall_cy            0                       # Total time spent blocked on any output link (Cycle)
system.ruby.network.routers9.throttle01.total_bw_sat_cy        81679                       # Total time bandwidth was saturated on any output link (Cycle)
system.ruby.network.routers9.throttle01.avg_msg_wait_time   258.665312                       # Average time a message took to be forwarded (Ratio)
system.ruby.network.routers9.throttle01.avg_bandwidth         0.51                       # Average bandwidth (GB/s) (Ratio)
system.ruby.network.routers9.throttle01.avg_useful_bandwidth         0.40                       # Average useful (only data) bandwidth (GB/s) (Ratio)
system.ruby.network.routers9.throttle01.msg_count.Control::2        20924                       (Unspecified)
system.ruby.network.routers9.throttle01.msg_bytes.Control::2       167392                       (Unspecified)
system.ruby.network.routers9.throttle01.msg_count.Data::2          284                       (Unspecified)
system.ruby.network.routers9.throttle01.msg_bytes.Data::2        20448                       (Unspecified)
system.ruby.network.routers9.throttle01.msg_count.Response_Data::4        20135                       (Unspecified)
system.ruby.network.routers9.throttle01.msg_bytes.Response_Data::4      1449720                       (Unspecified)
system.ruby.power_state.pwrStateResidencyTicks::UNDEFINED   3016622000                       # Cumulative time (in ticks) in various power states (Tick)
system.sys_port_proxy.power_state.pwrStateResidencyTicks::UNDEFINED   3016622000                       # Cumulative time (in ticks) in various power states (Tick)
system.voltage_domain.voltage                       1                       # Voltage in Volts (Volt)
system.workload.inst.arm                            0                       # number of arm instructions executed (Count)
system.workload.inst.quiesce                        0                       # number of quiesce instructions executed (Count)

---------- End Simulation Statistics   ----------
