
---------- Begin Simulation Statistics ----------
simSeconds                                   0.000541                       # Number of seconds simulated (Second)
simTicks                                    540767500                       # Number of ticks simulated (Tick)
finalTick                                   540767500                       # Number of ticks from beginning of simulation (restored from checkpoints and never reset) (Tick)
simFreq                                  1000000000000                       # The number of ticks per simulated second ((Tick/Second))
hostSeconds                                      1.07                       # Real time elapsed on the host (Second)
hostTickRate                                503701140                       # The number of ticks simulated per host second (ticks/s) ((Tick/Second))
hostMemory                                    2600880                       # Number of bytes of host memory used (Byte)
simInsts                                       346441                       # Number of instructions simulated (Count)
simOps                                         712503                       # Number of ops (including micro ops) simulated (Count)
hostInstRate                                   322645                       # Simulator instruction rate (inst/s) ((Count/Second))
hostOpRate                                     663529                       # Simulator op (including micro ops) rate (op/s) ((Count/Second))
system.clk_domain.clock                          1000                       # Clock period in ticks (Tick)
system.cpu0.numCycles                         1081535                       # Number of cpu cycles simulated (Cycle)
system.cpu0.cpi                              6.305224                       # CPI: cycles per instruction (core level) ((Cycle/Count))
system.cpu0.ipc                              0.158599                       # IPC: instructions per cycle (core level) ((Count/Cycle))
system.cpu0.numWorkItemsStarted                     0                       # Number of work items this cpu started (Count)
system.cpu0.numWorkItemsCompleted                   0                       # Number of work items this cpu completed (Count)
system.cpu0.commitStats0.numInsts              171530                       # Number of instructions committed (thread level) (Count)
system.cpu0.commitStats0.numOps                351822                       # Number of ops (including micro ops) committed (thread level) (Count)
system.cpu0.commitStats0.numInstsNotNOP             0                       # Number of instructions committed excluding NOPs or prefetches (Count)
system.cpu0.commitStats0.numOpsNotNOP               0                       # Number of Ops (including micro ops) Simulated (Count)
system.cpu0.commitStats0.cpi                 6.305224                       # CPI: cycles per instruction (thread level) ((Cycle/Count))
system.cpu0.commitStats0.ipc                 0.158599                       # IPC: instructions per cycle (thread level) ((Count/Cycle))
system.cpu0.commitStats0.numMemRefs                 0                       # Number of memory references committed (Count)
system.cpu0.commitStats0.numFpInsts              1354                       # Number of float instructions (Count)
system.cpu0.commitStats0.numIntInsts           350962                       # Number of integer instructions (Count)
system.cpu0.commitStats0.numLoadInsts           11926                       # Number of load instructions (Count)
system.cpu0.commitStats0.numStoreInsts          12552                       # Number of store instructions (Count)
system.cpu0.commitStats0.numVecInsts                0                       # Number of vector instructions (Count)
system.cpu0.commitStats0.committedInstType::No_OpClass          208      0.06%      0.06% # Class of committed instruction. (Count)
system.cpu0.commitStats0.committedInstType::IntAlu       326550     92.82%     92.88% # Class of committed instruction. (Count)
system.cpu0.commitStats0.committedInstType::IntMult           12      0.00%     92.88% # Class of committed instruction. (Count)
system.cpu0.commitStats0.committedInstType::IntDiv           21      0.01%     92.89% # Class of committed instruction. (Count)
system.cpu0.commitStats0.committedInstType::FloatAdd          172      0.05%     92.93% # Class of committed instruction. (Count)
system.cpu0.commitStats0.committedInstType::FloatCmp            0      0.00%     92.93% # Class of committed instruction. (Count)
system.cpu0.commitStats0.committedInstType::FloatCvt            0      0.00%     92.93% # Class of committed instruction. (Count)
system.cpu0.commitStats0.committedInstType::FloatMult            0      0.00%     92.93% # Class of committed instruction. (Count)
system.cpu0.commitStats0.committedInstType::FloatMultAcc            0      0.00%     92.93% # Class of committed instruction. (Count)
system.cpu0.commitStats0.committedInstType::FloatDiv            0      0.00%     92.93% # Class of committed instruction. (Count)
system.cpu0.commitStats0.committedInstType::FloatMisc            0      0.00%     92.93% # Class of committed instruction. (Count)
system.cpu0.commitStats0.committedInstType::FloatSqrt            0      0.00%     92.93% # Class of committed instruction. (Count)
system.cpu0.commitStats0.committedInstType::SimdAdd            8      0.00%     92.94% # Class of committed instruction. (Count)
system.cpu0.commitStats0.committedInstType::SimdAddAcc            0      0.00%     92.94% # Class of committed instruction. (Count)
system.cpu0.commitStats0.committedInstType::SimdAlu           96      0.03%     92.96% # Class of committed instruction. (Count)
system.cpu0.commitStats0.committedInstType::SimdCmp            0      0.00%     92.96% # Class of committed instruction. (Count)
system.cpu0.commitStats0.committedInstType::SimdCvt           48      0.01%     92.98% # Class of committed instruction. (Count)
system.cpu0.commitStats0.committedInstType::SimdMisc          229      0.07%     93.04% # Class of committed instruction. (Count)
system.cpu0.commitStats0.committedInstType::SimdMult            0      0.00%     93.04% # Class of committed instruction. (Count)
system.cpu0.commitStats0.committedInstType::SimdMultAcc            0      0.00%     93.04% # Class of committed instruction. (Count)
system.cpu0.commitStats0.committedInstType::SimdMatMultAcc            0      0.00%     93.04% # Class of committed instruction. (Count)
system.cpu0.commitStats0.committedInstType::SimdShift            0      0.00%     93.04% # Class of committed instruction. (Count)
system.cpu0.commitStats0.committedInstType::SimdShiftAcc            0      0.00%     93.04% # Class of committed instruction. (Count)
system.cpu0.commitStats0.committedInstType::SimdDiv            0      0.00%     93.04% # Class of committed instruction. (Count)
system.cpu0.commitStats0.committedInstType::SimdSqrt            0      0.00%     93.04% # Class of committed instruction. (Count)
system.cpu0.commitStats0.committedInstType::SimdFloatAdd            0      0.00%     93.04% # Class of committed instruction. (Count)
system.cpu0.commitStats0.committedInstType::SimdFloatAlu            0      0.00%     93.04% # Class of committed instruction. (Count)
system.cpu0.commitStats0.committedInstType::SimdFloatCmp            0      0.00%     93.04% # Class of committed instruction. (Count)
system.cpu0.commitStats0.committedInstType::SimdFloatCvt            0      0.00%     93.04% # Class of committed instruction. (Count)
system.cpu0.commitStats0.committedInstType::SimdFloatDiv            0      0.00%     93.04% # Class of committed instruction. (Count)
system.cpu0.commitStats0.committedInstType::SimdFloatMisc            0      0.00%     93.04% # Class of committed instruction. (Count)
system.cpu0.commitStats0.committedInstType::SimdFloatMult            0      0.00%     93.04% # Class of committed instruction. (Count)
system.cpu0.commitStats0.committedInstType::SimdFloatMultAcc            0      0.00%     93.04% # Class of committed instruction. (Count)
system.cpu0.commitStats0.committedInstType::SimdFloatMatMultAcc            0      0.00%     93.04% # Class of committed instruction. (Count)
system.cpu0.commitStats0.committedInstType::SimdFloatSqrt            0      0.00%     93.04% # Class of committed instruction. (Count)
system.cpu0.commitStats0.committedInstType::SimdReduceAdd            0      0.00%     93.04% # Class of committed instruction. (Count)
system.cpu0.commitStats0.committedInstType::SimdReduceAlu            0      0.00%     93.04% # Class of committed instruction. (Count)
system.cpu0.commitStats0.committedInstType::SimdReduceCmp            0      0.00%     93.04% # Class of committed instruction. (Count)
system.cpu0.commitStats0.committedInstType::SimdFloatReduceAdd            0      0.00%     93.04% # Class of committed instruction. (Count)
system.cpu0.commitStats0.committedInstType::SimdFloatReduceCmp            0      0.00%     93.04% # Class of committed instruction. (Count)
system.cpu0.commitStats0.committedInstType::SimdAes            0      0.00%     93.04% # Class of committed instruction. (Count)
system.cpu0.commitStats0.committedInstType::SimdAesMix            0      0.00%     93.04% # Class of committed instruction. (Count)
system.cpu0.commitStats0.committedInstType::SimdSha1Hash            0      0.00%     93.04% # Class of committed instruction. (Count)
system.cpu0.commitStats0.committedInstType::SimdSha1Hash2            0      0.00%     93.04% # Class of committed instruction. (Count)
system.cpu0.commitStats0.committedInstType::SimdSha256Hash            0      0.00%     93.04% # Class of committed instruction. (Count)
system.cpu0.commitStats0.committedInstType::SimdSha256Hash2            0      0.00%     93.04% # Class of committed instruction. (Count)
system.cpu0.commitStats0.committedInstType::SimdShaSigma2            0      0.00%     93.04% # Class of committed instruction. (Count)
system.cpu0.commitStats0.committedInstType::SimdShaSigma3            0      0.00%     93.04% # Class of committed instruction. (Count)
system.cpu0.commitStats0.committedInstType::SimdPredAlu            0      0.00%     93.04% # Class of committed instruction. (Count)
system.cpu0.commitStats0.committedInstType::Matrix            0      0.00%     93.04% # Class of committed instruction. (Count)
system.cpu0.commitStats0.committedInstType::MatrixMov            0      0.00%     93.04% # Class of committed instruction. (Count)
system.cpu0.commitStats0.committedInstType::MatrixOP            0      0.00%     93.04% # Class of committed instruction. (Count)
system.cpu0.commitStats0.committedInstType::MemRead        11805      3.36%     96.40% # Class of committed instruction. (Count)
system.cpu0.commitStats0.committedInstType::MemWrite        12029      3.42%     99.82% # Class of committed instruction. (Count)
system.cpu0.commitStats0.committedInstType::FloatMemRead          121      0.03%     99.85% # Class of committed instruction. (Count)
system.cpu0.commitStats0.committedInstType::FloatMemWrite          523      0.15%    100.00% # Class of committed instruction. (Count)
system.cpu0.commitStats0.committedInstType::IprAccess            0      0.00%    100.00% # Class of committed instruction. (Count)
system.cpu0.commitStats0.committedInstType::InstPrefetch            0      0.00%    100.00% # Class of committed instruction. (Count)
system.cpu0.commitStats0.committedInstType::SimdUnitStrideLoad            0      0.00%    100.00% # Class of committed instruction. (Count)
system.cpu0.commitStats0.committedInstType::SimdUnitStrideStore            0      0.00%    100.00% # Class of committed instruction. (Count)
system.cpu0.commitStats0.committedInstType::SimdUnitStrideMaskLoad            0      0.00%    100.00% # Class of committed instruction. (Count)
system.cpu0.commitStats0.committedInstType::SimdUnitStrideMaskStore            0      0.00%    100.00% # Class of committed instruction. (Count)
system.cpu0.commitStats0.committedInstType::SimdStridedLoad            0      0.00%    100.00% # Class of committed instruction. (Count)
system.cpu0.commitStats0.committedInstType::SimdStridedStore            0      0.00%    100.00% # Class of committed instruction. (Count)
system.cpu0.commitStats0.committedInstType::SimdIndexedLoad            0      0.00%    100.00% # Class of committed instruction. (Count)
system.cpu0.commitStats0.committedInstType::SimdIndexedStore            0      0.00%    100.00% # Class of committed instruction. (Count)
system.cpu0.commitStats0.committedInstType::SimdWholeRegisterLoad            0      0.00%    100.00% # Class of committed instruction. (Count)
system.cpu0.commitStats0.committedInstType::SimdWholeRegisterStore            0      0.00%    100.00% # Class of committed instruction. (Count)
system.cpu0.commitStats0.committedInstType::SimdUnitStrideFaultOnlyFirstLoad            0      0.00%    100.00% # Class of committed instruction. (Count)
system.cpu0.commitStats0.committedInstType::SimdUnitStrideSegmentedLoad            0      0.00%    100.00% # Class of committed instruction. (Count)
system.cpu0.commitStats0.committedInstType::SimdUnitStrideSegmentedStore            0      0.00%    100.00% # Class of committed instruction. (Count)
system.cpu0.commitStats0.committedInstType::SimdUnitStrideSegmentedFaultOnlyFirstLoad            0      0.00%    100.00% # Class of committed instruction. (Count)
system.cpu0.commitStats0.committedInstType::SimdStrideSegmentedLoad            0      0.00%    100.00% # Class of committed instruction. (Count)
system.cpu0.commitStats0.committedInstType::SimdStrideSegmentedStore            0      0.00%    100.00% # Class of committed instruction. (Count)
system.cpu0.commitStats0.committedInstType::SimdExt            0      0.00%    100.00% # Class of committed instruction. (Count)
system.cpu0.commitStats0.committedInstType::SimdFloatExt            0      0.00%    100.00% # Class of committed instruction. (Count)
system.cpu0.commitStats0.committedInstType::SimdConfig            0      0.00%    100.00% # Class of committed instruction. (Count)
system.cpu0.commitStats0.committedInstType::total       351822                       # Class of committed instruction. (Count)
system.cpu0.commitStats0.committedControl::IsControl        72153                       # Class of control type instructions committed (Count)
system.cpu0.commitStats0.committedControl::IsDirectControl        71905                       # Class of control type instructions committed (Count)
system.cpu0.commitStats0.committedControl::IsIndirectControl          248                       # Class of control type instructions committed (Count)
system.cpu0.commitStats0.committedControl::IsCondControl        51616                       # Class of control type instructions committed (Count)
system.cpu0.commitStats0.committedControl::IsUncondControl        20537                       # Class of control type instructions committed (Count)
system.cpu0.commitStats0.committedControl::IsCall          180                       # Class of control type instructions committed (Count)
system.cpu0.commitStats0.committedControl::IsReturn          175                       # Class of control type instructions committed (Count)
system.cpu0.exec_context.thread_0.numMatAluAccesses            0                       # Number of matrix alu accesses (Count)
system.cpu0.exec_context.thread_0.numCallsReturns          355                       # Number of times a function call or return occured (Count)
system.cpu0.exec_context.thread_0.numMatInsts            0                       # Number of matrix instructions (Count)
system.cpu0.exec_context.thread_0.numIdleCycles     0.002000                       # Number of idle cycles (Cycle)
system.cpu0.exec_context.thread_0.numBusyCycles 1081534.998000                       # Number of busy cycles (Cycle)
system.cpu0.exec_context.thread_0.notIdleFraction     1.000000                       # Percentage of non-idle cycles (Ratio)
system.cpu0.exec_context.thread_0.idleFraction     0.000000                       # Percentage of idle cycles (Ratio)
system.cpu0.executeStats0.numInsts                  0                       # Number of executed instructions (Count)
system.cpu0.executeStats0.numNop                    0                       # Number of nop insts executed (Count)
system.cpu0.executeStats0.numBranches               0                       # Number of branches executed (Count)
system.cpu0.executeStats0.numLoadInsts              0                       # Number of load instructions executed (Count)
system.cpu0.executeStats0.numStoreInsts         24478                       # Number of stores executed (Count)
system.cpu0.executeStats0.instRate                  0                       # Inst execution rate ((Count/Cycle))
system.cpu0.executeStats0.numFpAluAccesses         1354                       # Number of float alu accesses (Count)
system.cpu0.executeStats0.numFpRegReads          1462                       # Number of times the floating registers were read (Count)
system.cpu0.executeStats0.numFpRegWrites          785                       # Number of times the floating registers were written (Count)
system.cpu0.executeStats0.numIntAluAccesses       350962                       # Number of integer alu accesses (Count)
system.cpu0.executeStats0.numIntRegReads       323581                       # Number of times the integer registers were read (Count)
system.cpu0.executeStats0.numIntRegWrites       214670                       # Number of times the integer registers were written (Count)
system.cpu0.executeStats0.numMemRefs            24478                       # Number of memory refs (Count)
system.cpu0.executeStats0.numMiscRegReads       168999                       # Number of times the Misc registers were read (Count)
system.cpu0.executeStats0.numVecAluAccesses            0                       # Number of vector alu accesses (Count)
system.cpu0.executeStats0.numDiscardedOps            0                       # Number of ops (including micro ops) which were discarded before commit (Count)
system.cpu0.fetchStats0.numInsts               171530                       # Number of instructions fetched (thread level) (Count)
system.cpu0.fetchStats0.numOps                 351822                       # Number of ops (including micro ops) fetched (thread level) (Count)
system.cpu0.fetchStats0.fetchRate            0.158599                       # Number of inst fetches per cycle ((Count/Cycle))
system.cpu0.fetchStats0.numBranches             72153                       # Number of branches fetched (Count)
system.cpu0.fetchStats0.branchRate           0.066714                       # Number of branch fetches per cycle (Ratio)
system.cpu0.fetchStats0.numFetchSuspends            0                       # Number of times Execute suspended instruction fetching (Count)
system.cpu0.interrupts.clk_domain.clock          8000                       # Clock period in ticks (Tick)
system.cpu0.mmu.dtb.rdAccesses                  11930                       # TLB accesses on read requests (Count)
system.cpu0.mmu.dtb.wrAccesses                  12552                       # TLB accesses on write requests (Count)
system.cpu0.mmu.dtb.rdMisses                       15                       # TLB misses on read requests (Count)
system.cpu0.mmu.dtb.wrMisses                       11                       # TLB misses on write requests (Count)
system.cpu0.mmu.dtb.walker.power_state.pwrStateResidencyTicks::UNDEFINED    540767500                       # Cumulative time (in ticks) in various power states (Tick)
system.cpu0.mmu.itb.rdAccesses                      0                       # TLB accesses on read requests (Count)
system.cpu0.mmu.itb.wrAccesses                 235929                       # TLB accesses on write requests (Count)
system.cpu0.mmu.itb.rdMisses                        0                       # TLB misses on read requests (Count)
system.cpu0.mmu.itb.wrMisses                       47                       # TLB misses on write requests (Count)
system.cpu0.mmu.itb.walker.power_state.pwrStateResidencyTicks::UNDEFINED    540767500                       # Cumulative time (in ticks) in various power states (Tick)
system.cpu0.power_state.pwrStateResidencyTicks::ON    540767500                       # Cumulative time (in ticks) in various power states (Tick)
system.cpu0.thread_0.numInsts                       0                       # Number of Instructions committed (Count)
system.cpu0.thread_0.numOps                         0                       # Number of Ops committed (Count)
system.cpu0.thread_0.numMemRefs                     0                       # Number of Memory References (Count)
system.cpu0.workload.numSyscalls                   15                       # Number of system calls (Count)
system.cpu1.numCycles                         1081519                       # Number of cpu cycles simulated (Cycle)
system.cpu1.cpi                              6.182052                       # CPI: cycles per instruction (core level) ((Cycle/Count))
system.cpu1.ipc                              0.161759                       # IPC: instructions per cycle (core level) ((Count/Cycle))
system.cpu1.numWorkItemsStarted                     0                       # Number of work items this cpu started (Count)
system.cpu1.numWorkItemsCompleted                   0                       # Number of work items this cpu completed (Count)
system.cpu1.commitStats0.numInsts              174945                       # Number of instructions committed (thread level) (Count)
system.cpu1.commitStats0.numOps                360717                       # Number of ops (including micro ops) committed (thread level) (Count)
system.cpu1.commitStats0.numInstsNotNOP             0                       # Number of instructions committed excluding NOPs or prefetches (Count)
system.cpu1.commitStats0.numOpsNotNOP               0                       # Number of Ops (including micro ops) Simulated (Count)
system.cpu1.commitStats0.cpi                 6.182052                       # CPI: cycles per instruction (thread level) ((Cycle/Count))
system.cpu1.commitStats0.ipc                 0.161759                       # IPC: instructions per cycle (thread level) ((Count/Cycle))
system.cpu1.commitStats0.numMemRefs                 0                       # Number of memory references committed (Count)
system.cpu1.commitStats0.numFpInsts              1354                       # Number of float instructions (Count)
system.cpu1.commitStats0.numIntInsts           359857                       # Number of integer instructions (Count)
system.cpu1.commitStats0.numLoadInsts           13534                       # Number of load instructions (Count)
system.cpu1.commitStats0.numStoreInsts          11895                       # Number of store instructions (Count)
system.cpu1.commitStats0.numVecInsts                0                       # Number of vector instructions (Count)
system.cpu1.commitStats0.committedInstType::No_OpClass          209      0.06%      0.06% # Class of committed instruction. (Count)
system.cpu1.commitStats0.committedInstType::IntAlu       334493     92.73%     92.79% # Class of committed instruction. (Count)
system.cpu1.commitStats0.committedInstType::IntMult           12      0.00%     92.79% # Class of committed instruction. (Count)
system.cpu1.commitStats0.committedInstType::IntDiv           21      0.01%     92.80% # Class of committed instruction. (Count)
system.cpu1.commitStats0.committedInstType::FloatAdd          172      0.05%     92.84% # Class of committed instruction. (Count)
system.cpu1.commitStats0.committedInstType::FloatCmp            0      0.00%     92.84% # Class of committed instruction. (Count)
system.cpu1.commitStats0.committedInstType::FloatCvt            0      0.00%     92.84% # Class of committed instruction. (Count)
system.cpu1.commitStats0.committedInstType::FloatMult            0      0.00%     92.84% # Class of committed instruction. (Count)
system.cpu1.commitStats0.committedInstType::FloatMultAcc            0      0.00%     92.84% # Class of committed instruction. (Count)
system.cpu1.commitStats0.committedInstType::FloatDiv            0      0.00%     92.84% # Class of committed instruction. (Count)
system.cpu1.commitStats0.committedInstType::FloatMisc            0      0.00%     92.84% # Class of committed instruction. (Count)
system.cpu1.commitStats0.committedInstType::FloatSqrt            0      0.00%     92.84% # Class of committed instruction. (Count)
system.cpu1.commitStats0.committedInstType::SimdAdd            8      0.00%     92.85% # Class of committed instruction. (Count)
system.cpu1.commitStats0.committedInstType::SimdAddAcc            0      0.00%     92.85% # Class of committed instruction. (Count)
system.cpu1.commitStats0.committedInstType::SimdAlu           96      0.03%     92.87% # Class of committed instruction. (Count)
system.cpu1.commitStats0.committedInstType::SimdCmp            0      0.00%     92.87% # Class of committed instruction. (Count)
system.cpu1.commitStats0.committedInstType::SimdCvt           48      0.01%     92.89% # Class of committed instruction. (Count)
system.cpu1.commitStats0.committedInstType::SimdMisc          229      0.06%     92.95% # Class of committed instruction. (Count)
system.cpu1.commitStats0.committedInstType::SimdMult            0      0.00%     92.95% # Class of committed instruction. (Count)
system.cpu1.commitStats0.committedInstType::SimdMultAcc            0      0.00%     92.95% # Class of committed instruction. (Count)
system.cpu1.commitStats0.committedInstType::SimdMatMultAcc            0      0.00%     92.95% # Class of committed instruction. (Count)
system.cpu1.commitStats0.committedInstType::SimdShift            0      0.00%     92.95% # Class of committed instruction. (Count)
system.cpu1.commitStats0.committedInstType::SimdShiftAcc            0      0.00%     92.95% # Class of committed instruction. (Count)
system.cpu1.commitStats0.committedInstType::SimdDiv            0      0.00%     92.95% # Class of committed instruction. (Count)
system.cpu1.commitStats0.committedInstType::SimdSqrt            0      0.00%     92.95% # Class of committed instruction. (Count)
system.cpu1.commitStats0.committedInstType::SimdFloatAdd            0      0.00%     92.95% # Class of committed instruction. (Count)
system.cpu1.commitStats0.committedInstType::SimdFloatAlu            0      0.00%     92.95% # Class of committed instruction. (Count)
system.cpu1.commitStats0.committedInstType::SimdFloatCmp            0      0.00%     92.95% # Class of committed instruction. (Count)
system.cpu1.commitStats0.committedInstType::SimdFloatCvt            0      0.00%     92.95% # Class of committed instruction. (Count)
system.cpu1.commitStats0.committedInstType::SimdFloatDiv            0      0.00%     92.95% # Class of committed instruction. (Count)
system.cpu1.commitStats0.committedInstType::SimdFloatMisc            0      0.00%     92.95% # Class of committed instruction. (Count)
system.cpu1.commitStats0.committedInstType::SimdFloatMult            0      0.00%     92.95% # Class of committed instruction. (Count)
system.cpu1.commitStats0.committedInstType::SimdFloatMultAcc            0      0.00%     92.95% # Class of committed instruction. (Count)
system.cpu1.commitStats0.committedInstType::SimdFloatMatMultAcc            0      0.00%     92.95% # Class of committed instruction. (Count)
system.cpu1.commitStats0.committedInstType::SimdFloatSqrt            0      0.00%     92.95% # Class of committed instruction. (Count)
system.cpu1.commitStats0.committedInstType::SimdReduceAdd            0      0.00%     92.95% # Class of committed instruction. (Count)
system.cpu1.commitStats0.committedInstType::SimdReduceAlu            0      0.00%     92.95% # Class of committed instruction. (Count)
system.cpu1.commitStats0.committedInstType::SimdReduceCmp            0      0.00%     92.95% # Class of committed instruction. (Count)
system.cpu1.commitStats0.committedInstType::SimdFloatReduceAdd            0      0.00%     92.95% # Class of committed instruction. (Count)
system.cpu1.commitStats0.committedInstType::SimdFloatReduceCmp            0      0.00%     92.95% # Class of committed instruction. (Count)
system.cpu1.commitStats0.committedInstType::SimdAes            0      0.00%     92.95% # Class of committed instruction. (Count)
system.cpu1.commitStats0.committedInstType::SimdAesMix            0      0.00%     92.95% # Class of committed instruction. (Count)
system.cpu1.commitStats0.committedInstType::SimdSha1Hash            0      0.00%     92.95% # Class of committed instruction. (Count)
system.cpu1.commitStats0.committedInstType::SimdSha1Hash2            0      0.00%     92.95% # Class of committed instruction. (Count)
system.cpu1.commitStats0.committedInstType::SimdSha256Hash            0      0.00%     92.95% # Class of committed instruction. (Count)
system.cpu1.commitStats0.committedInstType::SimdSha256Hash2            0      0.00%     92.95% # Class of committed instruction. (Count)
system.cpu1.commitStats0.committedInstType::SimdShaSigma2            0      0.00%     92.95% # Class of committed instruction. (Count)
system.cpu1.commitStats0.committedInstType::SimdShaSigma3            0      0.00%     92.95% # Class of committed instruction. (Count)
system.cpu1.commitStats0.committedInstType::SimdPredAlu            0      0.00%     92.95% # Class of committed instruction. (Count)
system.cpu1.commitStats0.committedInstType::Matrix            0      0.00%     92.95% # Class of committed instruction. (Count)
system.cpu1.commitStats0.committedInstType::MatrixMov            0      0.00%     92.95% # Class of committed instruction. (Count)
system.cpu1.commitStats0.committedInstType::MatrixOP            0      0.00%     92.95% # Class of committed instruction. (Count)
system.cpu1.commitStats0.committedInstType::MemRead        13413      3.72%     96.67% # Class of committed instruction. (Count)
system.cpu1.commitStats0.committedInstType::MemWrite        11372      3.15%     99.82% # Class of committed instruction. (Count)
system.cpu1.commitStats0.committedInstType::FloatMemRead          121      0.03%     99.86% # Class of committed instruction. (Count)
system.cpu1.commitStats0.committedInstType::FloatMemWrite          523      0.14%    100.00% # Class of committed instruction. (Count)
system.cpu1.commitStats0.committedInstType::IprAccess            0      0.00%    100.00% # Class of committed instruction. (Count)
system.cpu1.commitStats0.committedInstType::InstPrefetch            0      0.00%    100.00% # Class of committed instruction. (Count)
system.cpu1.commitStats0.committedInstType::SimdUnitStrideLoad            0      0.00%    100.00% # Class of committed instruction. (Count)
system.cpu1.commitStats0.committedInstType::SimdUnitStrideStore            0      0.00%    100.00% # Class of committed instruction. (Count)
system.cpu1.commitStats0.committedInstType::SimdUnitStrideMaskLoad            0      0.00%    100.00% # Class of committed instruction. (Count)
system.cpu1.commitStats0.committedInstType::SimdUnitStrideMaskStore            0      0.00%    100.00% # Class of committed instruction. (Count)
system.cpu1.commitStats0.committedInstType::SimdStridedLoad            0      0.00%    100.00% # Class of committed instruction. (Count)
system.cpu1.commitStats0.committedInstType::SimdStridedStore            0      0.00%    100.00% # Class of committed instruction. (Count)
system.cpu1.commitStats0.committedInstType::SimdIndexedLoad            0      0.00%    100.00% # Class of committed instruction. (Count)
system.cpu1.commitStats0.committedInstType::SimdIndexedStore            0      0.00%    100.00% # Class of committed instruction. (Count)
system.cpu1.commitStats0.committedInstType::SimdWholeRegisterLoad            0      0.00%    100.00% # Class of committed instruction. (Count)
system.cpu1.commitStats0.committedInstType::SimdWholeRegisterStore            0      0.00%    100.00% # Class of committed instruction. (Count)
system.cpu1.commitStats0.committedInstType::SimdUnitStrideFaultOnlyFirstLoad            0      0.00%    100.00% # Class of committed instruction. (Count)
system.cpu1.commitStats0.committedInstType::SimdUnitStrideSegmentedLoad            0      0.00%    100.00% # Class of committed instruction. (Count)
system.cpu1.commitStats0.committedInstType::SimdUnitStrideSegmentedStore            0      0.00%    100.00% # Class of committed instruction. (Count)
system.cpu1.commitStats0.committedInstType::SimdUnitStrideSegmentedFaultOnlyFirstLoad            0      0.00%    100.00% # Class of committed instruction. (Count)
system.cpu1.commitStats0.committedInstType::SimdStrideSegmentedLoad            0      0.00%    100.00% # Class of committed instruction. (Count)
system.cpu1.commitStats0.committedInstType::SimdStrideSegmentedStore            0      0.00%    100.00% # Class of committed instruction. (Count)
system.cpu1.commitStats0.committedInstType::SimdExt            0      0.00%    100.00% # Class of committed instruction. (Count)
system.cpu1.commitStats0.committedInstType::SimdFloatExt            0      0.00%    100.00% # Class of committed instruction. (Count)
system.cpu1.commitStats0.committedInstType::SimdConfig            0      0.00%    100.00% # Class of committed instruction. (Count)
system.cpu1.commitStats0.committedInstType::total       360717                       # Class of committed instruction. (Count)
system.cpu1.commitStats0.committedControl::IsControl        73704                       # Class of control type instructions committed (Count)
system.cpu1.commitStats0.committedControl::IsDirectControl        73456                       # Class of control type instructions committed (Count)
system.cpu1.commitStats0.committedControl::IsIndirectControl          248                       # Class of control type instructions committed (Count)
system.cpu1.commitStats0.committedControl::IsCondControl        53168                       # Class of control type instructions committed (Count)
system.cpu1.commitStats0.committedControl::IsUncondControl        20536                       # Class of control type instructions committed (Count)
system.cpu1.commitStats0.committedControl::IsCall          180                       # Class of control type instructions committed (Count)
system.cpu1.commitStats0.committedControl::IsReturn          175                       # Class of control type instructions committed (Count)
system.cpu1.exec_context.thread_0.numMatAluAccesses            0                       # Number of matrix alu accesses (Count)
system.cpu1.exec_context.thread_0.numCallsReturns          355                       # Number of times a function call or return occured (Count)
system.cpu1.exec_context.thread_0.numMatInsts            0                       # Number of matrix instructions (Count)
system.cpu1.exec_context.thread_0.numIdleCycles    16.001763                       # Number of idle cycles (Cycle)
system.cpu1.exec_context.thread_0.numBusyCycles 1081502.998237                       # Number of busy cycles (Cycle)
system.cpu1.exec_context.thread_0.notIdleFraction     0.999985                       # Percentage of non-idle cycles (Ratio)
system.cpu1.exec_context.thread_0.idleFraction     0.000015                       # Percentage of idle cycles (Ratio)
system.cpu1.executeStats0.numInsts                  0                       # Number of executed instructions (Count)
system.cpu1.executeStats0.numNop                    0                       # Number of nop insts executed (Count)
system.cpu1.executeStats0.numBranches               0                       # Number of branches executed (Count)
system.cpu1.executeStats0.numLoadInsts              0                       # Number of load instructions executed (Count)
system.cpu1.executeStats0.numStoreInsts         25429                       # Number of stores executed (Count)
system.cpu1.executeStats0.instRate                  0                       # Inst execution rate ((Count/Cycle))
system.cpu1.executeStats0.numFpAluAccesses         1354                       # Number of float alu accesses (Count)
system.cpu1.executeStats0.numFpRegReads          1462                       # Number of times the floating registers were read (Count)
system.cpu1.executeStats0.numFpRegWrites          785                       # Number of times the floating registers were written (Count)
system.cpu1.executeStats0.numIntAluAccesses       359857                       # Number of integer alu accesses (Count)
system.cpu1.executeStats0.numIntRegReads       328799                       # Number of times the integer registers were read (Count)
system.cpu1.executeStats0.numIntRegWrites       221120                       # Number of times the integer registers were written (Count)
system.cpu1.executeStats0.numMemRefs            25429                       # Number of memory refs (Count)
system.cpu1.executeStats0.numMiscRegReads       173052                       # Number of times the Misc registers were read (Count)
system.cpu1.executeStats0.numVecAluAccesses            0                       # Number of vector alu accesses (Count)
system.cpu1.executeStats0.numDiscardedOps            0                       # Number of ops (including micro ops) which were discarded before commit (Count)
system.cpu1.fetchStats0.numInsts               174945                       # Number of instructions fetched (thread level) (Count)
system.cpu1.fetchStats0.numOps                 360717                       # Number of ops (including micro ops) fetched (thread level) (Count)
system.cpu1.fetchStats0.fetchRate            0.161759                       # Number of inst fetches per cycle ((Count/Cycle))
system.cpu1.fetchStats0.numBranches             73704                       # Number of branches fetched (Count)
system.cpu1.fetchStats0.branchRate           0.068149                       # Number of branch fetches per cycle (Ratio)
system.cpu1.fetchStats0.numFetchSuspends            0                       # Number of times Execute suspended instruction fetching (Count)
system.cpu1.interrupts.clk_domain.clock          8000                       # Clock period in ticks (Tick)
system.cpu1.mmu.dtb.rdAccesses                  13538                       # TLB accesses on read requests (Count)
system.cpu1.mmu.dtb.wrAccesses                  11895                       # TLB accesses on write requests (Count)
system.cpu1.mmu.dtb.rdMisses                       17                       # TLB misses on read requests (Count)
system.cpu1.mmu.dtb.wrMisses                        9                       # TLB misses on write requests (Count)
system.cpu1.mmu.dtb.walker.power_state.pwrStateResidencyTicks::UNDEFINED    540767500                       # Cumulative time (in ticks) in various power states (Tick)
system.cpu1.mmu.itb.rdAccesses                      0                       # TLB accesses on read requests (Count)
system.cpu1.mmu.itb.wrAccesses                 239916                       # TLB accesses on write requests (Count)
system.cpu1.mmu.itb.rdMisses                        0                       # TLB misses on read requests (Count)
system.cpu1.mmu.itb.wrMisses                       47                       # TLB misses on write requests (Count)
system.cpu1.mmu.itb.walker.power_state.pwrStateResidencyTicks::UNDEFINED    540767500                       # Cumulative time (in ticks) in various power states (Tick)
system.cpu1.power_state.pwrStateResidencyTicks::ON    540767500                       # Cumulative time (in ticks) in various power states (Tick)
system.cpu1.thread_0.numInsts                       0                       # Number of Instructions committed (Count)
system.cpu1.thread_0.numOps                         0                       # Number of Ops committed (Count)
system.cpu1.thread_0.numMemRefs                     0                       # Number of Memory References (Count)
system.cpu1.workload.numSyscalls                   15                       # Number of system calls (Count)
system.cpu_clk_domain.clock                       500                       # Clock period in ticks (Tick)
system.cpu_voltage_domain.voltage                   1                       # Voltage in Volts (Volt)
system.mem_ctrls.avgPriority_ruby.dir_cntrl0::samples      1633.00                       # Average QoS priority value for accepted requests (Count)
system.mem_ctrls.priorityMinLatency      0.000000018750                       # per QoS priority minimum request to response latency (Second)
system.mem_ctrls.priorityMaxLatency      0.000000579500                       # per QoS priority maximum request to response latency (Second)
system.mem_ctrls.numReadWriteTurnArounds            0                       # Number of turnarounds from READ to WRITE (Count)
system.mem_ctrls.numWriteReadTurnArounds            0                       # Number of turnarounds from WRITE to READ (Count)
system.mem_ctrls.numStayReadState                3390                       # Number of times bus staying in READ state (Count)
system.mem_ctrls.numStayWriteState                  0                       # Number of times bus staying in WRITE state (Count)
system.mem_ctrls.readReqs                        1633                       # Number of read requests accepted (Count)
system.mem_ctrls.writeReqs                          0                       # Number of write requests accepted (Count)
system.mem_ctrls.readBursts                      1633                       # Number of controller read bursts, including those serviced by the write queue (Count)
system.mem_ctrls.writeBursts                        0                       # Number of controller write bursts, including those merged in the write queue (Count)
system.mem_ctrls.servicedByWrQ                      0                       # Number of controller read bursts serviced by the write queue (Count)
system.mem_ctrls.mergedWrBursts                     0                       # Number of controller write bursts merged with an existing one (Count)
system.mem_ctrls.neitherReadNorWriteReqs            0                       # Number of requests that are neither read nor write (Count)
system.mem_ctrls.avgRdQLen                       1.92                       # Average read queue length when enqueuing ((Count/Tick))
system.mem_ctrls.avgWrQLen                       0.00                       # Average write queue length when enqueuing ((Count/Tick))
system.mem_ctrls.numRdRetry                         0                       # Number of times read queue was full causing retry (Count)
system.mem_ctrls.numWrRetry                         0                       # Number of times write queue was full causing retry (Count)
system.mem_ctrls.readPktSize::0                     0                       # Read request sizes (log2) (Count)
system.mem_ctrls.readPktSize::1                     0                       # Read request sizes (log2) (Count)
system.mem_ctrls.readPktSize::2                     0                       # Read request sizes (log2) (Count)
system.mem_ctrls.readPktSize::3                     0                       # Read request sizes (log2) (Count)
system.mem_ctrls.readPktSize::4                     0                       # Read request sizes (log2) (Count)
system.mem_ctrls.readPktSize::5                     0                       # Read request sizes (log2) (Count)
system.mem_ctrls.readPktSize::6                  1633                       # Read request sizes (log2) (Count)
system.mem_ctrls.writePktSize::0                    0                       # Write request sizes (log2) (Count)
system.mem_ctrls.writePktSize::1                    0                       # Write request sizes (log2) (Count)
system.mem_ctrls.writePktSize::2                    0                       # Write request sizes (log2) (Count)
system.mem_ctrls.writePktSize::3                    0                       # Write request sizes (log2) (Count)
system.mem_ctrls.writePktSize::4                    0                       # Write request sizes (log2) (Count)
system.mem_ctrls.writePktSize::5                    0                       # Write request sizes (log2) (Count)
system.mem_ctrls.writePktSize::6                    0                       # Write request sizes (log2) (Count)
system.mem_ctrls.rdQLenPdf::0                    1150                       # What read queue length does an incoming req see (Count)
system.mem_ctrls.rdQLenPdf::1                     481                       # What read queue length does an incoming req see (Count)
system.mem_ctrls.rdQLenPdf::2                       2                       # What read queue length does an incoming req see (Count)
system.mem_ctrls.rdQLenPdf::3                       0                       # What read queue length does an incoming req see (Count)
system.mem_ctrls.rdQLenPdf::4                       0                       # What read queue length does an incoming req see (Count)
system.mem_ctrls.rdQLenPdf::5                       0                       # What read queue length does an incoming req see (Count)
system.mem_ctrls.rdQLenPdf::6                       0                       # What read queue length does an incoming req see (Count)
system.mem_ctrls.rdQLenPdf::7                       0                       # What read queue length does an incoming req see (Count)
system.mem_ctrls.rdQLenPdf::8                       0                       # What read queue length does an incoming req see (Count)
system.mem_ctrls.rdQLenPdf::9                       0                       # What read queue length does an incoming req see (Count)
system.mem_ctrls.rdQLenPdf::10                      0                       # What read queue length does an incoming req see (Count)
system.mem_ctrls.rdQLenPdf::11                      0                       # What read queue length does an incoming req see (Count)
system.mem_ctrls.rdQLenPdf::12                      0                       # What read queue length does an incoming req see (Count)
system.mem_ctrls.rdQLenPdf::13                      0                       # What read queue length does an incoming req see (Count)
system.mem_ctrls.rdQLenPdf::14                      0                       # What read queue length does an incoming req see (Count)
system.mem_ctrls.rdQLenPdf::15                      0                       # What read queue length does an incoming req see (Count)
system.mem_ctrls.rdQLenPdf::16                      0                       # What read queue length does an incoming req see (Count)
system.mem_ctrls.rdQLenPdf::17                      0                       # What read queue length does an incoming req see (Count)
system.mem_ctrls.rdQLenPdf::18                      0                       # What read queue length does an incoming req see (Count)
system.mem_ctrls.rdQLenPdf::19                      0                       # What read queue length does an incoming req see (Count)
system.mem_ctrls.rdQLenPdf::20                      0                       # What read queue length does an incoming req see (Count)
system.mem_ctrls.rdQLenPdf::21                      0                       # What read queue length does an incoming req see (Count)
system.mem_ctrls.rdQLenPdf::22                      0                       # What read queue length does an incoming req see (Count)
system.mem_ctrls.rdQLenPdf::23                      0                       # What read queue length does an incoming req see (Count)
system.mem_ctrls.rdQLenPdf::24                      0                       # What read queue length does an incoming req see (Count)
system.mem_ctrls.rdQLenPdf::25                      0                       # What read queue length does an incoming req see (Count)
system.mem_ctrls.rdQLenPdf::26                      0                       # What read queue length does an incoming req see (Count)
system.mem_ctrls.rdQLenPdf::27                      0                       # What read queue length does an incoming req see (Count)
system.mem_ctrls.rdQLenPdf::28                      0                       # What read queue length does an incoming req see (Count)
system.mem_ctrls.rdQLenPdf::29                      0                       # What read queue length does an incoming req see (Count)
system.mem_ctrls.rdQLenPdf::30                      0                       # What read queue length does an incoming req see (Count)
system.mem_ctrls.rdQLenPdf::31                      0                       # What read queue length does an incoming req see (Count)
system.mem_ctrls.wrQLenPdf::0                       0                       # What write queue length does an incoming req see (Count)
system.mem_ctrls.wrQLenPdf::1                       0                       # What write queue length does an incoming req see (Count)
system.mem_ctrls.wrQLenPdf::2                       0                       # What write queue length does an incoming req see (Count)
system.mem_ctrls.wrQLenPdf::3                       0                       # What write queue length does an incoming req see (Count)
system.mem_ctrls.wrQLenPdf::4                       0                       # What write queue length does an incoming req see (Count)
system.mem_ctrls.wrQLenPdf::5                       0                       # What write queue length does an incoming req see (Count)
system.mem_ctrls.wrQLenPdf::6                       0                       # What write queue length does an incoming req see (Count)
system.mem_ctrls.wrQLenPdf::7                       0                       # What write queue length does an incoming req see (Count)
system.mem_ctrls.wrQLenPdf::8                       0                       # What write queue length does an incoming req see (Count)
system.mem_ctrls.wrQLenPdf::9                       0                       # What write queue length does an incoming req see (Count)
system.mem_ctrls.wrQLenPdf::10                      0                       # What write queue length does an incoming req see (Count)
system.mem_ctrls.wrQLenPdf::11                      0                       # What write queue length does an incoming req see (Count)
system.mem_ctrls.wrQLenPdf::12                      0                       # What write queue length does an incoming req see (Count)
system.mem_ctrls.wrQLenPdf::13                      0                       # What write queue length does an incoming req see (Count)
system.mem_ctrls.wrQLenPdf::14                      0                       # What write queue length does an incoming req see (Count)
system.mem_ctrls.wrQLenPdf::15                      0                       # What write queue length does an incoming req see (Count)
system.mem_ctrls.wrQLenPdf::16                      0                       # What write queue length does an incoming req see (Count)
system.mem_ctrls.wrQLenPdf::17                      0                       # What write queue length does an incoming req see (Count)
system.mem_ctrls.wrQLenPdf::18                      0                       # What write queue length does an incoming req see (Count)
system.mem_ctrls.wrQLenPdf::19                      0                       # What write queue length does an incoming req see (Count)
system.mem_ctrls.wrQLenPdf::20                      0                       # What write queue length does an incoming req see (Count)
system.mem_ctrls.wrQLenPdf::21                      0                       # What write queue length does an incoming req see (Count)
system.mem_ctrls.wrQLenPdf::22                      0                       # What write queue length does an incoming req see (Count)
system.mem_ctrls.wrQLenPdf::23                      0                       # What write queue length does an incoming req see (Count)
system.mem_ctrls.wrQLenPdf::24                      0                       # What write queue length does an incoming req see (Count)
system.mem_ctrls.wrQLenPdf::25                      0                       # What write queue length does an incoming req see (Count)
system.mem_ctrls.wrQLenPdf::26                      0                       # What write queue length does an incoming req see (Count)
system.mem_ctrls.wrQLenPdf::27                      0                       # What write queue length does an incoming req see (Count)
system.mem_ctrls.wrQLenPdf::28                      0                       # What write queue length does an incoming req see (Count)
system.mem_ctrls.wrQLenPdf::29                      0                       # What write queue length does an incoming req see (Count)
system.mem_ctrls.wrQLenPdf::30                      0                       # What write queue length does an incoming req see (Count)
system.mem_ctrls.wrQLenPdf::31                      0                       # What write queue length does an incoming req see (Count)
system.mem_ctrls.wrQLenPdf::32                      0                       # What write queue length does an incoming req see (Count)
system.mem_ctrls.wrQLenPdf::33                      0                       # What write queue length does an incoming req see (Count)
system.mem_ctrls.wrQLenPdf::34                      0                       # What write queue length does an incoming req see (Count)
system.mem_ctrls.wrQLenPdf::35                      0                       # What write queue length does an incoming req see (Count)
system.mem_ctrls.wrQLenPdf::36                      0                       # What write queue length does an incoming req see (Count)
system.mem_ctrls.wrQLenPdf::37                      0                       # What write queue length does an incoming req see (Count)
system.mem_ctrls.wrQLenPdf::38                      0                       # What write queue length does an incoming req see (Count)
system.mem_ctrls.wrQLenPdf::39                      0                       # What write queue length does an incoming req see (Count)
system.mem_ctrls.wrQLenPdf::40                      0                       # What write queue length does an incoming req see (Count)
system.mem_ctrls.wrQLenPdf::41                      0                       # What write queue length does an incoming req see (Count)
system.mem_ctrls.wrQLenPdf::42                      0                       # What write queue length does an incoming req see (Count)
system.mem_ctrls.wrQLenPdf::43                      0                       # What write queue length does an incoming req see (Count)
system.mem_ctrls.wrQLenPdf::44                      0                       # What write queue length does an incoming req see (Count)
system.mem_ctrls.wrQLenPdf::45                      0                       # What write queue length does an incoming req see (Count)
system.mem_ctrls.wrQLenPdf::46                      0                       # What write queue length does an incoming req see (Count)
system.mem_ctrls.wrQLenPdf::47                      0                       # What write queue length does an incoming req see (Count)
system.mem_ctrls.wrQLenPdf::48                      0                       # What write queue length does an incoming req see (Count)
system.mem_ctrls.wrQLenPdf::49                      0                       # What write queue length does an incoming req see (Count)
system.mem_ctrls.wrQLenPdf::50                      0                       # What write queue length does an incoming req see (Count)
system.mem_ctrls.wrQLenPdf::51                      0                       # What write queue length does an incoming req see (Count)
system.mem_ctrls.wrQLenPdf::52                      0                       # What write queue length does an incoming req see (Count)
system.mem_ctrls.wrQLenPdf::53                      0                       # What write queue length does an incoming req see (Count)
system.mem_ctrls.wrQLenPdf::54                      0                       # What write queue length does an incoming req see (Count)
system.mem_ctrls.wrQLenPdf::55                      0                       # What write queue length does an incoming req see (Count)
system.mem_ctrls.wrQLenPdf::56                      0                       # What write queue length does an incoming req see (Count)
system.mem_ctrls.wrQLenPdf::57                      0                       # What write queue length does an incoming req see (Count)
system.mem_ctrls.wrQLenPdf::58                      0                       # What write queue length does an incoming req see (Count)
system.mem_ctrls.wrQLenPdf::59                      0                       # What write queue length does an incoming req see (Count)
system.mem_ctrls.wrQLenPdf::60                      0                       # What write queue length does an incoming req see (Count)
system.mem_ctrls.wrQLenPdf::61                      0                       # What write queue length does an incoming req see (Count)
system.mem_ctrls.wrQLenPdf::62                      0                       # What write queue length does an incoming req see (Count)
system.mem_ctrls.wrQLenPdf::63                      0                       # What write queue length does an incoming req see (Count)
system.mem_ctrls.bytesReadWrQ                       0                       # Total number of bytes read from write queue (Byte)
system.mem_ctrls.bytesReadSys                  104512                       # Total read bytes from the system interface side (Byte)
system.mem_ctrls.bytesWrittenSys                    0                       # Total written bytes from the system interface side (Byte)
system.mem_ctrls.avgRdBWSys              193266052.41624174                       # Average system read bandwidth in Byte/s ((Byte/Second))
system.mem_ctrls.avgWrBWSys                0.00000000                       # Average system write bandwidth in Byte/s ((Byte/Second))
system.mem_ctrls.totGap                     540709500                       # Total gap between requests (Tick)
system.mem_ctrls.avgGap                     331114.21                       # Average gap between requests ((Tick/Count))
system.mem_ctrls.requestorReadBytes::ruby.dir_cntrl0       104512                       # Per-requestor bytes read from memory (Byte)
system.mem_ctrls.requestorReadRate::ruby.dir_cntrl0 193266052.416241735220                       # Per-requestor bytes read from memory rate ((Byte/Second))
system.mem_ctrls.requestorReadAccesses::ruby.dir_cntrl0         1633                       # Per-requestor read serviced memory accesses (Count)
system.mem_ctrls.requestorReadTotalLat::ruby.dir_cntrl0     46220250                       # Per-requestor read total memory access latency (Tick)
system.mem_ctrls.requestorReadAvgLat::ruby.dir_cntrl0     28303.89                       # Per-requestor read average memory access latency ((Tick/Count))
system.mem_ctrls.dram.bytesRead::ruby.dir_cntrl0       104512                       # Number of bytes read from this memory (Byte)
system.mem_ctrls.dram.bytesRead::total         104512                       # Number of bytes read from this memory (Byte)
system.mem_ctrls.dram.numReads::ruby.dir_cntrl0         1633                       # Number of read requests responded to by this memory (Count)
system.mem_ctrls.dram.numReads::total            1633                       # Number of read requests responded to by this memory (Count)
system.mem_ctrls.dram.bwRead::ruby.dir_cntrl0    193266052                       # Total read bandwidth from this memory ((Byte/Second))
system.mem_ctrls.dram.bwRead::total         193266052                       # Total read bandwidth from this memory ((Byte/Second))
system.mem_ctrls.dram.bwTotal::ruby.dir_cntrl0    193266052                       # Total bandwidth to/from this memory ((Byte/Second))
system.mem_ctrls.dram.bwTotal::total        193266052                       # Total bandwidth to/from this memory ((Byte/Second))
system.mem_ctrls.dram.readBursts                 1633                       # Number of DRAM read bursts (Count)
system.mem_ctrls.dram.writeBursts                   0                       # Number of DRAM write bursts (Count)
system.mem_ctrls.dram.perBankRdBursts::0          151                       # Per bank write bursts (Count)
system.mem_ctrls.dram.perBankRdBursts::1          160                       # Per bank write bursts (Count)
system.mem_ctrls.dram.perBankRdBursts::2          114                       # Per bank write bursts (Count)
system.mem_ctrls.dram.perBankRdBursts::3          105                       # Per bank write bursts (Count)
system.mem_ctrls.dram.perBankRdBursts::4           71                       # Per bank write bursts (Count)
system.mem_ctrls.dram.perBankRdBursts::5          111                       # Per bank write bursts (Count)
system.mem_ctrls.dram.perBankRdBursts::6          140                       # Per bank write bursts (Count)
system.mem_ctrls.dram.perBankRdBursts::7           38                       # Per bank write bursts (Count)
system.mem_ctrls.dram.perBankRdBursts::8           67                       # Per bank write bursts (Count)
system.mem_ctrls.dram.perBankRdBursts::9          123                       # Per bank write bursts (Count)
system.mem_ctrls.dram.perBankRdBursts::10           86                       # Per bank write bursts (Count)
system.mem_ctrls.dram.perBankRdBursts::11           58                       # Per bank write bursts (Count)
system.mem_ctrls.dram.perBankRdBursts::12           92                       # Per bank write bursts (Count)
system.mem_ctrls.dram.perBankRdBursts::13          159                       # Per bank write bursts (Count)
system.mem_ctrls.dram.perBankRdBursts::14          112                       # Per bank write bursts (Count)
system.mem_ctrls.dram.perBankRdBursts::15           46                       # Per bank write bursts (Count)
system.mem_ctrls.dram.perBankWrBursts::0            0                       # Per bank write bursts (Count)
system.mem_ctrls.dram.perBankWrBursts::1            0                       # Per bank write bursts (Count)
system.mem_ctrls.dram.perBankWrBursts::2            0                       # Per bank write bursts (Count)
system.mem_ctrls.dram.perBankWrBursts::3            0                       # Per bank write bursts (Count)
system.mem_ctrls.dram.perBankWrBursts::4            0                       # Per bank write bursts (Count)
system.mem_ctrls.dram.perBankWrBursts::5            0                       # Per bank write bursts (Count)
system.mem_ctrls.dram.perBankWrBursts::6            0                       # Per bank write bursts (Count)
system.mem_ctrls.dram.perBankWrBursts::7            0                       # Per bank write bursts (Count)
system.mem_ctrls.dram.perBankWrBursts::8            0                       # Per bank write bursts (Count)
system.mem_ctrls.dram.perBankWrBursts::9            0                       # Per bank write bursts (Count)
system.mem_ctrls.dram.perBankWrBursts::10            0                       # Per bank write bursts (Count)
system.mem_ctrls.dram.perBankWrBursts::11            0                       # Per bank write bursts (Count)
system.mem_ctrls.dram.perBankWrBursts::12            0                       # Per bank write bursts (Count)
system.mem_ctrls.dram.perBankWrBursts::13            0                       # Per bank write bursts (Count)
system.mem_ctrls.dram.perBankWrBursts::14            0                       # Per bank write bursts (Count)
system.mem_ctrls.dram.perBankWrBursts::15            0                       # Per bank write bursts (Count)
system.mem_ctrls.dram.totQLat                15601500                       # Total ticks spent queuing (Tick)
system.mem_ctrls.dram.totBusLat               8165000                       # Total ticks spent in databus transfers (Tick)
system.mem_ctrls.dram.totMemAccLat           46220250                       # Total ticks spent from burst creation until serviced by the DRAM (Tick)
system.mem_ctrls.dram.avgQLat                 9553.89                       # Average queueing delay per DRAM burst ((Tick/Count))
system.mem_ctrls.dram.avgBusLat               5000.00                       # Average bus latency per DRAM burst ((Tick/Count))
system.mem_ctrls.dram.avgMemAccLat           28303.89                       # Average memory access latency per DRAM burst ((Tick/Count))
system.mem_ctrls.dram.readRowHits                1204                       # Number of row buffer hits during reads (Count)
system.mem_ctrls.dram.writeRowHits                  0                       # Number of row buffer hits during writes (Count)
system.mem_ctrls.dram.readRowHitRate            73.73                       # Row buffer hit rate for reads (Ratio)
system.mem_ctrls.dram.writeRowHitRate             nan                       # Row buffer hit rate for writes (Ratio)
system.mem_ctrls.dram.bytesPerActivate::samples          420                       # Bytes accessed per row activation (Byte)
system.mem_ctrls.dram.bytesPerActivate::mean   242.133333                       # Bytes accessed per row activation (Byte)
system.mem_ctrls.dram.bytesPerActivate::gmean   152.134295                       # Bytes accessed per row activation (Byte)
system.mem_ctrls.dram.bytesPerActivate::stdev   272.378827                       # Bytes accessed per row activation (Byte)
system.mem_ctrls.dram.bytesPerActivate::0-127          168     40.00%     40.00% # Bytes accessed per row activation (Byte)
system.mem_ctrls.dram.bytesPerActivate::128-255          123     29.29%     69.29% # Bytes accessed per row activation (Byte)
system.mem_ctrls.dram.bytesPerActivate::256-383           45     10.71%     80.00% # Bytes accessed per row activation (Byte)
system.mem_ctrls.dram.bytesPerActivate::384-511           24      5.71%     85.71% # Bytes accessed per row activation (Byte)
system.mem_ctrls.dram.bytesPerActivate::512-639           12      2.86%     88.57% # Bytes accessed per row activation (Byte)
system.mem_ctrls.dram.bytesPerActivate::640-767            7      1.67%     90.24% # Bytes accessed per row activation (Byte)
system.mem_ctrls.dram.bytesPerActivate::768-895            8      1.90%     92.14% # Bytes accessed per row activation (Byte)
system.mem_ctrls.dram.bytesPerActivate::896-1023            8      1.90%     94.05% # Bytes accessed per row activation (Byte)
system.mem_ctrls.dram.bytesPerActivate::1024-1151           25      5.95%    100.00% # Bytes accessed per row activation (Byte)
system.mem_ctrls.dram.bytesPerActivate::total          420                       # Bytes accessed per row activation (Byte)
system.mem_ctrls.dram.dramBytesRead            104512                       # Total bytes read (Byte)
system.mem_ctrls.dram.dramBytesWritten              0                       # Total bytes written (Byte)
system.mem_ctrls.dram.avgRdBW              193.266052                       # Average DRAM read bandwidth in MiBytes/s ((Byte/Second))
system.mem_ctrls.dram.avgWrBW                       0                       # Average DRAM write bandwidth in MiBytes/s ((Byte/Second))
system.mem_ctrls.dram.peakBW                 12800.00                       # Theoretical peak bandwidth in MiByte/s ((Byte/Second))
system.mem_ctrls.dram.busUtil                    1.51                       # Data bus utilization in percentage (Ratio)
system.mem_ctrls.dram.busUtilRead                1.51                       # Data bus utilization in percentage for reads (Ratio)
system.mem_ctrls.dram.busUtilWrite               0.00                       # Data bus utilization in percentage for writes (Ratio)
system.mem_ctrls.dram.pageHitRate               73.73                       # Row buffer hit rate, read and write combined (Ratio)
system.mem_ctrls.dram.power_state.pwrStateResidencyTicks::UNDEFINED    540767500                       # Cumulative time (in ticks) in various power states (Tick)
system.mem_ctrls.dram.rank0.actEnergy         1563660                       # Energy for activate commands per rank (pJ) (Joule)
system.mem_ctrls.dram.rank0.preEnergy          812130                       # Energy for precharge commands per rank (pJ) (Joule)
system.mem_ctrls.dram.rank0.readEnergy        6354600                       # Energy for read commands per rank (pJ) (Joule)
system.mem_ctrls.dram.rank0.writeEnergy             0                       # Energy for write commands per rank (pJ) (Joule)
system.mem_ctrls.dram.rank0.refreshEnergy 42410160.000000                       # Energy for refresh commands per rank (pJ) (Joule)
system.mem_ctrls.dram.rank0.actBackEnergy     43745790                       # Energy for active background per rank (pJ) (Joule)
system.mem_ctrls.dram.rank0.preBackEnergy    170816160                       # Energy for precharge background per rank (pJ) (Joule)
system.mem_ctrls.dram.rank0.actPowerDownEnergy            0                       # Energy for active power-down per rank (pJ) (Joule)
system.mem_ctrls.dram.rank0.prePowerDownEnergy            0                       # Energy for precharge power-down per rank (pJ) (Joule)
system.mem_ctrls.dram.rank0.selfRefreshEnergy            0                       # Energy for self refresh per rank (pJ) (Joule)
system.mem_ctrls.dram.rank0.totalEnergy     265702500                       # Total energy per rank (pJ) (Joule)
system.mem_ctrls.dram.rank0.averagePower   491.343322                       # Core power per rank (mW) (Watt)
system.mem_ctrls.dram.rank0.totalIdleTime            0                       # Total Idle time Per DRAM Rank (Tick)
system.mem_ctrls.dram.rank0.pwrStateTime::IDLE    443718000                       # Time in different power states (Tick)
system.mem_ctrls.dram.rank0.pwrStateTime::REF     17940000                       # Time in different power states (Tick)
system.mem_ctrls.dram.rank0.pwrStateTime::SREF            0                       # Time in different power states (Tick)
system.mem_ctrls.dram.rank0.pwrStateTime::PRE_PDN            0                       # Time in different power states (Tick)
system.mem_ctrls.dram.rank0.pwrStateTime::ACT     79109500                       # Time in different power states (Tick)
system.mem_ctrls.dram.rank0.pwrStateTime::ACT_PDN            0                       # Time in different power states (Tick)
system.mem_ctrls.dram.rank1.actEnergy         1499400                       # Energy for activate commands per rank (pJ) (Joule)
system.mem_ctrls.dram.rank1.preEnergy          781770                       # Energy for precharge commands per rank (pJ) (Joule)
system.mem_ctrls.dram.rank1.readEnergy        5305020                       # Energy for read commands per rank (pJ) (Joule)
system.mem_ctrls.dram.rank1.writeEnergy             0                       # Energy for write commands per rank (pJ) (Joule)
system.mem_ctrls.dram.rank1.refreshEnergy 42410160.000000                       # Energy for refresh commands per rank (pJ) (Joule)
system.mem_ctrls.dram.rank1.actBackEnergy     42903900                       # Energy for active background per rank (pJ) (Joule)
system.mem_ctrls.dram.rank1.preBackEnergy    171525120                       # Energy for precharge background per rank (pJ) (Joule)
system.mem_ctrls.dram.rank1.actPowerDownEnergy            0                       # Energy for active power-down per rank (pJ) (Joule)
system.mem_ctrls.dram.rank1.prePowerDownEnergy            0                       # Energy for precharge power-down per rank (pJ) (Joule)
system.mem_ctrls.dram.rank1.selfRefreshEnergy            0                       # Energy for self refresh per rank (pJ) (Joule)
system.mem_ctrls.dram.rank1.totalEnergy     264425370                       # Total energy per rank (pJ) (Joule)
system.mem_ctrls.dram.rank1.averagePower   488.981623                       # Core power per rank (mW) (Watt)
system.mem_ctrls.dram.rank1.totalIdleTime            0                       # Total Idle time Per DRAM Rank (Tick)
system.mem_ctrls.dram.rank1.pwrStateTime::IDLE    445548250                       # Time in different power states (Tick)
system.mem_ctrls.dram.rank1.pwrStateTime::REF     17940000                       # Time in different power states (Tick)
system.mem_ctrls.dram.rank1.pwrStateTime::SREF            0                       # Time in different power states (Tick)
system.mem_ctrls.dram.rank1.pwrStateTime::PRE_PDN            0                       # Time in different power states (Tick)
system.mem_ctrls.dram.rank1.pwrStateTime::ACT     77279250                       # Time in different power states (Tick)
system.mem_ctrls.dram.rank1.pwrStateTime::ACT_PDN            0                       # Time in different power states (Tick)
system.mem_ctrls.power_state.pwrStateResidencyTicks::UNDEFINED    540767500                       # Cumulative time (in ticks) in various power states (Tick)
system.ruby.delayHistogram::bucket_size             4                       # delay histogram for all message (Unspecified)
system.ruby.delayHistogram::max_bucket             39                       # delay histogram for all message (Unspecified)
system.ruby.delayHistogram::samples            145692                       # delay histogram for all message (Unspecified)
system.ruby.delayHistogram::mean             1.994070                       # delay histogram for all message (Unspecified)
system.ruby.delayHistogram::stdev            5.541044                       # delay histogram for all message (Unspecified)
system.ruby.delayHistogram               |      125632     86.23%     86.23% |          39      0.03%     86.26% |       10021      6.88%     93.14% |           0      0.00%     93.14% |           1      0.00%     93.14% |        9999      6.86%    100.00% |           0      0.00%    100.00% |           0      0.00%    100.00% |           0      0.00%    100.00% |           0      0.00%    100.00% # delay histogram for all message (Unspecified)
system.ruby.delayHistogram::total              145692                       # delay histogram for all message (Unspecified)
system.ruby.m_outstandReqHistSeqr::bucket_size            1                       (Unspecified)
system.ruby.m_outstandReqHistSeqr::max_bucket            9                       (Unspecified)
system.ruby.m_outstandReqHistSeqr::samples       525754                       (Unspecified)
system.ruby.m_outstandReqHistSeqr::mean      1.000015                       (Unspecified)
system.ruby.m_outstandReqHistSeqr::gmean     1.000011                       (Unspecified)
system.ruby.m_outstandReqHistSeqr::stdev     0.003901                       (Unspecified)
system.ruby.m_outstandReqHistSeqr        |           0      0.00%      0.00% |      525746    100.00%    100.00% |           8      0.00%    100.00% |           0      0.00%    100.00% |           0      0.00%    100.00% |           0      0.00%    100.00% |           0      0.00%    100.00% |           0      0.00%    100.00% |           0      0.00%    100.00% |           0      0.00%    100.00% (Unspecified)
system.ruby.m_outstandReqHistSeqr::total       525754                       (Unspecified)
system.ruby.m_latencyHistSeqr::bucket_size          128                       (Unspecified)
system.ruby.m_latencyHistSeqr::max_bucket         1279                       (Unspecified)
system.ruby.m_latencyHistSeqr::samples         525754                       (Unspecified)
system.ruby.m_latencyHistSeqr::mean          3.114848                       (Unspecified)
system.ruby.m_latencyHistSeqr::gmean         1.231936                       (Unspecified)
system.ruby.m_latencyHistSeqr::stdev        10.652603                       (Unspecified)
system.ruby.m_latencyHistSeqr            |      525267     99.91%     99.91% |         468      0.09%    100.00% |           3      0.00%    100.00% |           0      0.00%    100.00% |           9      0.00%    100.00% |           7      0.00%    100.00% |           0      0.00%    100.00% |           0      0.00%    100.00% |           0      0.00%    100.00% |           0      0.00%    100.00% (Unspecified)
system.ruby.m_latencyHistSeqr::total           525754                       (Unspecified)
system.ruby.m_hitLatencyHistSeqr::bucket_size            1                       (Unspecified)
system.ruby.m_hitLatencyHistSeqr::max_bucket            9                       (Unspecified)
system.ruby.m_hitLatencyHistSeqr::samples       494072                       (Unspecified)
system.ruby.m_hitLatencyHistSeqr::mean              1                       (Unspecified)
system.ruby.m_hitLatencyHistSeqr::gmean             1                       (Unspecified)
system.ruby.m_hitLatencyHistSeqr         |           0      0.00%      0.00% |      494072    100.00%    100.00% |           0      0.00%    100.00% |           0      0.00%    100.00% |           0      0.00%    100.00% |           0      0.00%    100.00% |           0      0.00%    100.00% |           0      0.00%    100.00% |           0      0.00%    100.00% |           0      0.00%    100.00% (Unspecified)
system.ruby.m_hitLatencyHistSeqr::total        494072                       (Unspecified)
system.ruby.m_missLatencyHistSeqr::bucket_size          128                       (Unspecified)
system.ruby.m_missLatencyHistSeqr::max_bucket         1279                       (Unspecified)
system.ruby.m_missLatencyHistSeqr::samples        31682                       (Unspecified)
system.ruby.m_missLatencyHistSeqr::mean     36.095322                       (Unspecified)
system.ruby.m_missLatencyHistSeqr::gmean    31.862987                       (Unspecified)
system.ruby.m_missLatencyHistSeqr::stdev    26.938710                       (Unspecified)
system.ruby.m_missLatencyHistSeqr        |       31195     98.46%     98.46% |         468      1.48%     99.94% |           3      0.01%     99.95% |           0      0.00%     99.95% |           9      0.03%     99.98% |           7      0.02%    100.00% |           0      0.00%    100.00% |           0      0.00%    100.00% |           0      0.00%    100.00% |           0      0.00%    100.00% (Unspecified)
system.ruby.m_missLatencyHistSeqr::total        31682                       (Unspecified)
system.ruby.delayVCHist.vnet_0::bucket_size            4                       # delay histogram for vnet_0 (Unspecified)
system.ruby.delayVCHist.vnet_0::max_bucket           39                       # delay histogram for vnet_0 (Unspecified)
system.ruby.delayVCHist.vnet_0::samples         62331                       # delay histogram for vnet_0 (Unspecified)
system.ruby.delayVCHist.vnet_0::mean         3.376041                       # delay histogram for vnet_0 (Unspecified)
system.ruby.delayVCHist.vnet_0::stdev        7.706056                       # delay histogram for vnet_0 (Unspecified)
system.ruby.delayVCHist.vnet_0           |       52282     83.88%     83.88% |          39      0.06%     83.94% |          10      0.02%     83.96% |           0      0.00%     83.96% |           1      0.00%     83.96% |        9999     16.04%    100.00% |           0      0.00%    100.00% |           0      0.00%    100.00% |           0      0.00%    100.00% |           0      0.00%    100.00% # delay histogram for vnet_0 (Unspecified)
system.ruby.delayVCHist.vnet_0::total           62331                       # delay histogram for vnet_0 (Unspecified)
system.ruby.delayVCHist.vnet_1::bucket_size            1                       # delay histogram for vnet_1 (Unspecified)
system.ruby.delayVCHist.vnet_1::max_bucket            9                       # delay histogram for vnet_1 (Unspecified)
system.ruby.delayVCHist.vnet_1::samples         53336                       # delay histogram for vnet_1 (Unspecified)
[...]
system.ruby.network.routers2.throttle01.msg_count.Response_Data::1         1657                       (Unspecified)
system.ruby.network.routers2.throttle01.msg_bytes.Response_Data::1       119304                       (Unspecified)
system.ruby.network.routers2.throttle01.msg_count.Response_Control::1        10011                       (Unspecified)
system.ruby.network.routers2.throttle01.msg_bytes.Response_Control::1        80088                       (Unspecified)
system.ruby.network.routers3.percent_links_utilized     0.377473                       (Unspecified)
system.ruby.network.routers3.msg_count.Control::0         1633                       (Unspecified)
system.ruby.network.routers3.msg_bytes.Control::0        13064                       (Unspecified)
system.ruby.network.routers3.msg_count.Response_Data::1         1633                       (Unspecified)
system.ruby.network.routers3.msg_bytes.Response_Data::1       117576                       (Unspecified)
system.ruby.network.routers3.port_buffers0.m_msg_count         1633                       # Number of messages passed the buffer (Count)
system.ruby.network.routers3.port_buffers0.m_buf_msgs     0.001510                       # Average number of messages in buffer ((Count/Tick))
system.ruby.network.routers3.port_buffers4.m_msg_count         1633                       # Number of messages passed the buffer (Count)
system.ruby.network.routers3.port_buffers4.m_buf_msgs     0.001510                       # Average number of messages in buffer ((Count/Tick))
system.ruby.network.routers3.power_state.pwrStateResidencyTicks::UNDEFINED    540767500                       # Cumulative time (in ticks) in various power states (Tick)
system.ruby.network.routers3.throttle00.acc_link_utilization   816.500000                       # Accumulated link utilization system.ruby.network.ext_links3 (Count)
system.ruby.network.routers3.throttle00.link_utilization     0.075495                       # Average link utilization (Ratio)
system.ruby.network.routers3.throttle00.total_msg_count         1633                       # Total number of messages forwarded by this switch (Count)
system.ruby.network.routers3.throttle00.total_msg_bytes        13064                       # Total number of bytes forwarded by this switch (Byte)
system.ruby.network.routers3.throttle00.total_data_msg_bytes            0                       # Total number of data bytes forwarded by this switch (Byte)
system.ruby.network.routers3.throttle00.total_msg_wait_time            0                       # Total time spend forwarding messages (Tick)
system.ruby.network.routers3.throttle00.total_stall_cy            0                       # Total time spent blocked on any output link (Cycle)
system.ruby.network.routers3.throttle00.total_bw_sat_cy            0                       # Total time bandwidth was saturated on any output link (Cycle)
system.ruby.network.routers3.throttle00.avg_msg_wait_time            0                       # Average time a message took to be forwarded (Ratio)
system.ruby.network.routers3.throttle00.avg_bandwidth         0.02                       # Average bandwidth (GB/s) (Ratio)
system.ruby.network.routers3.throttle00.avg_useful_bandwidth         0.00                       # Average useful (only data) bandwidth (GB/s) (Ratio)
system.ruby.network.routers3.throttle00.msg_count.Control::0         1633                       (Unspecified)
system.ruby.network.routers3.throttle00.msg_bytes.Control::0        13064                       (Unspecified)
system.ruby.network.routers3.throttle01.acc_link_utilization  7348.500000                       # Accumulated link utilization system.ruby.network.int_links3 (Count)
system.ruby.network.routers3.throttle01.link_utilization     0.679451                       # Average link utilization (Ratio)
system.ruby.network.routers3.throttle01.total_msg_count         1633                       # Total number of messages forwarded by this switch (Count)
system.ruby.network.routers3.throttle01.total_msg_bytes       117576                       # Total number of bytes forwarded by this switch (Byte)
system.ruby.network.routers3.throttle01.total_data_msg_bytes       104512                       # Total number of data bytes forwarded by this switch (Byte)
system.ruby.network.routers3.throttle01.total_msg_wait_time            0                       # Total time spend forwarding messages (Tick)
system.ruby.network.routers3.throttle01.total_stall_cy            0                       # Total time spent blocked on any output link (Cycle)
system.ruby.network.routers3.throttle01.total_bw_sat_cy         6532                       # Total time bandwidth was saturated on any output link (Cycle)
system.ruby.network.routers3.throttle01.avg_msg_wait_time            0                       # Average time a message took to be forwarded (Ratio)
system.ruby.network.routers3.throttle01.avg_bandwidth         0.20                       # Average bandwidth (GB/s) (Ratio)
system.ruby.network.routers3.throttle01.avg_useful_bandwidth         0.18                       # Average useful (only data) bandwidth (GB/s) (Ratio)
system.ruby.network.routers3.throttle01.msg_count.Response_Data::1         1633                       (Unspecified)
system.ruby.network.routers3.throttle01.msg_bytes.Response_Data::1       117576                       (Unspecified)
system.ruby.network.routers4.percent_links_utilized     4.783259                       (Unspecified)
system.ruby.network.routers4.msg_count.Control::0        33315                       (Unspecified)
system.ruby.network.routers4.msg_bytes.Control::0       266520                       (Unspecified)
system.ruby.network.routers4.msg_count.Request_Control::2        30025                       (Unspecified)
system.ruby.network.routers4.msg_bytes.Request_Control::2       240200                       (Unspecified)
system.ruby.network.routers4.msg_count.Response_Data::1        33316                       (Unspecified)
system.ruby.network.routers4.msg_bytes.Response_Data::1      2398752                       (Unspecified)
system.ruby.network.routers4.msg_count.Response_Control::1        20020                       (Unspecified)
system.ruby.network.routers4.msg_count.Response_Control::2        30647                       (Unspecified)
system.ruby.network.routers4.msg_bytes.Response_Control::1       160160                       (Unspecified)
system.ruby.network.routers4.msg_bytes.Response_Control::2       245176                       (Unspecified)
system.ruby.network.routers4.msg_count.Writeback_Data::0            1                       (Unspecified)
system.ruby.network.routers4.msg_bytes.Writeback_Data::0           72                       (Unspecified)
system.ruby.network.routers4.msg_count.Writeback_Control::0            1                       (Unspecified)
system.ruby.network.routers4.msg_bytes.Writeback_Control::0            8                       (Unspecified)
system.ruby.network.routers4.port_buffers1.m_msg_count        20894                       # Number of messages passed the buffer (Count)
system.ruby.network.routers4.port_buffers1.m_buf_msgs     0.019319                       # Average number of messages in buffer ((Count/Tick))
system.ruby.network.routers4.port_buffers2.m_msg_count        15013                       # Number of messages passed the buffer (Count)
system.ruby.network.routers4.port_buffers2.m_buf_msgs     0.013881                       # Average number of messages in buffer ((Count/Tick))
system.ruby.network.routers4.port_buffers4.m_msg_count        20799                       # Number of messages passed the buffer (Count)
system.ruby.network.routers4.port_buffers4.m_buf_msgs     0.019231                       # Average number of messages in buffer ((Count/Tick))
system.ruby.network.routers4.port_buffers5.m_msg_count        15012                       # Number of messages passed the buffer (Count)
system.ruby.network.routers4.port_buffers5.m_buf_msgs     0.013880                       # Average number of messages in buffer ((Count/Tick))
system.ruby.network.routers4.port_buffers6.m_msg_count        31684                       # Number of messages passed the buffer (Count)
system.ruby.network.routers4.port_buffers6.m_buf_msgs     0.029395                       # Average number of messages in buffer ((Count/Tick))
system.ruby.network.routers4.port_buffers6.m_stall_time        54000                       # Total number of ticks messages were stalled in this buffer (Tick)
system.ruby.network.routers4.port_buffers6.m_avg_stall_time     1.704330                       # Average stall ticks per message ((Tick/Count))
system.ruby.network.routers4.port_buffers7.m_msg_count        11643                       # Number of messages passed the buffer (Count)
system.ruby.network.routers4.port_buffers7.m_buf_msgs     0.010765                       # Average number of messages in buffer ((Count/Tick))
system.ruby.network.routers4.port_buffers8.m_msg_count        30647                       # Number of messages passed the buffer (Count)
system.ruby.network.routers4.port_buffers8.m_buf_msgs     0.028408                       # Average number of messages in buffer ((Count/Tick))
system.ruby.network.routers4.port_buffers8.m_stall_time        38500                       # Total number of ticks messages were stalled in this buffer (Tick)
system.ruby.network.routers4.port_buffers8.m_avg_stall_time     1.256240                       # Average stall ticks per message ((Tick/Count))
system.ruby.network.routers4.port_buffers9.m_msg_count         1633                       # Number of messages passed the buffer (Count)
system.ruby.network.routers4.port_buffers9.m_buf_msgs     0.001510                       # Average number of messages in buffer ((Count/Tick))
system.ruby.network.routers4.power_state.pwrStateResidencyTicks::UNDEFINED    540767500                       # Cumulative time (in ticks) in various power states (Tick)
system.ruby.network.routers4.throttle00.acc_link_utilization 61465.500000                       # Accumulated link utilization system.ruby.network.int_links4 (Count)
system.ruby.network.routers4.throttle00.link_utilization     5.683173                       # Average link utilization (Ratio)
system.ruby.network.routers4.throttle00.total_msg_count        35907                       # Total number of messages forwarded by this switch (Count)
system.ruby.network.routers4.throttle00.total_msg_bytes       983448                       # Total number of bytes forwarded by this switch (Byte)
system.ruby.network.routers4.throttle00.total_data_msg_bytes       696192                       # Total number of data bytes forwarded by this switch (Byte)
system.ruby.network.routers4.throttle00.total_msg_wait_time            0                       # Total time spend forwarding messages (Tick)
system.ruby.network.routers4.throttle00.total_stall_cy            0                       # Total time spent blocked on any output link (Cycle)
system.ruby.network.routers4.throttle00.total_bw_sat_cy        43512                       # Total time bandwidth was saturated on any output link (Cycle)
system.ruby.network.routers4.throttle00.avg_msg_wait_time            0                       # Average time a message took to be forwarded (Ratio)
system.ruby.network.routers4.throttle00.avg_bandwidth         1.69                       # Average bandwidth (GB/s) (Ratio)
system.ruby.network.routers4.throttle00.avg_useful_bandwidth         1.20                       # Average useful (only data) bandwidth (GB/s) (Ratio)
system.ruby.network.routers4.throttle00.msg_count.Request_Control::2        15013                       (Unspecified)
system.ruby.network.routers4.throttle00.msg_bytes.Request_Control::2       120104                       (Unspecified)
system.ruby.network.routers4.throttle00.msg_count.Response_Data::1        10878                       (Unspecified)
system.ruby.network.routers4.throttle00.msg_bytes.Response_Data::1       783216                       (Unspecified)
system.ruby.network.routers4.throttle00.msg_count.Response_Control::1        10016                       (Unspecified)
system.ruby.network.routers4.throttle00.msg_bytes.Response_Control::1        80128                       (Unspecified)
system.ruby.network.routers4.throttle01.acc_link_utilization 61085.500000                       # Accumulated link utilization system.ruby.network.int_links5 (Count)
system.ruby.network.routers4.throttle01.link_utilization     5.648037                       # Average link utilization (Ratio)
system.ruby.network.routers4.throttle01.total_msg_count        35811                       # Total number of messages forwarded by this switch (Count)
system.ruby.network.routers4.throttle01.total_msg_bytes       977368                       # Total number of bytes forwarded by this switch (Byte)
system.ruby.network.routers4.throttle01.total_data_msg_bytes       690880                       # Total number of data bytes forwarded by this switch (Byte)
system.ruby.network.routers4.throttle01.total_msg_wait_time            0                       # Total time spend forwarding messages (Tick)
system.ruby.network.routers4.throttle01.total_stall_cy            0                       # Total time spent blocked on any output link (Cycle)
system.ruby.network.routers4.throttle01.total_bw_sat_cy        43180                       # Total time bandwidth was saturated on any output link (Cycle)
system.ruby.network.routers4.throttle01.avg_msg_wait_time            0                       # Average time a message took to be forwarded (Ratio)
system.ruby.network.routers4.throttle01.avg_bandwidth         1.68                       # Average bandwidth (GB/s) (Ratio)
system.ruby.network.routers4.throttle01.avg_useful_bandwidth         1.19                       # Average useful (only data) bandwidth (GB/s) (Ratio)
system.ruby.network.routers4.throttle01.msg_count.Request_Control::2        15012                       (Unspecified)
system.ruby.network.routers4.throttle01.msg_bytes.Request_Control::2       120096                       (Unspecified)
system.ruby.network.routers4.throttle01.msg_count.Response_Data::1        10795                       (Unspecified)
system.ruby.network.routers4.throttle01.msg_bytes.Response_Data::1       777240                       (Unspecified)
system.ruby.network.routers4.throttle01.msg_count.Response_Control::1        10004                       (Unspecified)
system.ruby.network.routers4.throttle01.msg_bytes.Response_Control::1        80032                       (Unspecified)
system.ruby.network.routers4.throttle02.acc_link_utilization        83563                       # Accumulated link utilization system.ruby.network.int_links6 (Count)
system.ruby.network.routers4.throttle02.link_utilization     7.726333                       # Average link utilization (Ratio)
system.ruby.network.routers4.throttle02.total_msg_count        73974                       # Total number of messages forwarded by this switch (Count)
system.ruby.network.routers4.throttle02.total_msg_bytes      1337008                       # Total number of bytes forwarded by this switch (Byte)
system.ruby.network.routers4.throttle02.total_data_msg_bytes       745216                       # Total number of data bytes forwarded by this switch (Byte)
system.ruby.network.routers4.throttle02.total_msg_wait_time        92500                       # Total time spend forwarding messages (Tick)
system.ruby.network.routers4.throttle02.total_stall_cy            0                       # Total time spent blocked on any output link (Cycle)
system.ruby.network.routers4.throttle02.total_bw_sat_cy        46576                       # Total time bandwidth was saturated on any output link (Cycle)
system.ruby.network.routers4.throttle02.avg_msg_wait_time     1.250439                       # Average time a message took to be forwarded (Ratio)
system.ruby.network.routers4.throttle02.avg_bandwidth         2.30                       # Average bandwidth (GB/s) (Ratio)
system.ruby.network.routers4.throttle02.avg_useful_bandwidth         1.28                       # Average useful (only data) bandwidth (GB/s) (Ratio)
system.ruby.network.routers4.throttle02.msg_count.Control::0        31682                       (Unspecified)
system.ruby.network.routers4.throttle02.msg_bytes.Control::0       253456                       (Unspecified)
system.ruby.network.routers4.throttle02.msg_count.Response_Data::1        11643                       (Unspecified)
system.ruby.network.routers4.throttle02.msg_bytes.Response_Data::1       838296                       (Unspecified)
system.ruby.network.routers4.throttle02.msg_count.Response_Control::2        30647                       (Unspecified)
system.ruby.network.routers4.throttle02.msg_bytes.Response_Control::2       245176                       (Unspecified)
system.ruby.network.routers4.throttle02.msg_count.Writeback_Data::0            1                       (Unspecified)
system.ruby.network.routers4.throttle02.msg_bytes.Writeback_Data::0           72                       (Unspecified)
system.ruby.network.routers4.throttle02.msg_count.Writeback_Control::0            1                       (Unspecified)
system.ruby.network.routers4.throttle02.msg_bytes.Writeback_Control::0            8                       (Unspecified)
system.ruby.network.routers4.throttle03.acc_link_utilization   816.500000                       # Accumulated link utilization system.ruby.network.int_links7 (Count)
system.ruby.network.routers4.throttle03.link_utilization     0.075495                       # Average link utilization (Ratio)
system.ruby.network.routers4.throttle03.total_msg_count         1633                       # Total number of messages forwarded by this switch (Count)
system.ruby.network.routers4.throttle03.total_msg_bytes        13064                       # Total number of bytes forwarded by this switch (Byte)
system.ruby.network.routers4.throttle03.total_data_msg_bytes            0                       # Total number of data bytes forwarded by this switch (Byte)
system.ruby.network.routers4.throttle03.total_msg_wait_time            0                       # Total time spend forwarding messages (Tick)
system.ruby.network.routers4.throttle03.total_stall_cy            0                       # Total time spent blocked on any output link (Cycle)
system.ruby.network.routers4.throttle03.total_bw_sat_cy            0                       # Total time bandwidth was saturated on any output link (Cycle)
system.ruby.network.routers4.throttle03.avg_msg_wait_time            0                       # Average time a message took to be forwarded (Ratio)
system.ruby.network.routers4.throttle03.avg_bandwidth         0.02                       # Average bandwidth (GB/s) (Ratio)
system.ruby.network.routers4.throttle03.avg_useful_bandwidth         0.00                       # Average useful (only data) bandwidth (GB/s) (Ratio)
system.ruby.network.routers4.throttle03.msg_count.Control::0         1633                       (Unspecified)
system.ruby.network.routers4.throttle03.msg_bytes.Control::0        13064                       (Unspecified)
system.ruby.power_state.pwrStateResidencyTicks::UNDEFINED    540767500                       # Cumulative time (in ticks) in various power states (Tick)
system.sys_port_proxy.power_state.pwrStateResidencyTicks::UNDEFINED    540767500                       # Cumulative time (in ticks) in various power states (Tick)
system.voltage_domain.voltage                       1                       # Voltage in Volts (Volt)
system.workload.inst.arm                            0                       # number of arm instructions executed (Count)
system.workload.inst.quiesce                        0                       # number of quiesce instructions executed (Count)

---------- End Simulation Statistics   ----------
