
---------- Begin Simulation Statistics ----------
simSeconds                                   0.000710                       # Number of seconds simulated (Second)
simTicks                                    709836000                       # Number of ticks simulated (Tick)
finalTick                                   709836000                       # Number of ticks from beginning of simulation (restored from checkpoints and never reset) (Tick)
simFreq                                  1000000000000                       # The number of ticks per simulated second ((Tick/Second))
hostSeconds                                      2.10                       # Real time elapsed on the host (Second)
hostTickRate                                337631600                       # The number of ticks simulated per host second (ticks/s) ((Tick/Second))
hostMemory                                    2617996                       # Number of bytes of host memory used (Byte)
simInsts                                       576722                       # Number of instructions simulated (Count)
simOps                                        1114926                       # Number of ops (including micro ops) simulated (Count)
hostInstRate                                   274305                       # Simulator instruction rate (inst/s) ((Count/Second))
hostOpRate                                     530289                       # Simulator op (including micro ops) rate (op/s) ((Count/Second))
system.clk_domain.clock                          1000                       # Clock period in ticks (Tick)
system.cpu0.numCycles                         1419573                       # Number of cpu cycles simulated (Cycle)
system.cpu0.cpi                             10.027712                       # CPI: cycles per instruction (core level) ((Cycle/Count))
system.cpu0.ipc                              0.099724                       # IPC: instructions per cycle (core level) ((Count/Cycle))
system.cpu0.numWorkItemsStarted                     0                       # Number of work items this cpu started (Count)
system.cpu0.numWorkItemsCompleted                   0                       # Number of work items this cpu completed (Count)
system.cpu0.commitStats0.numInsts              141565                       # Number of instructions committed (thread level) (Count)
system.cpu0.commitStats0.numOps                271913                       # Number of ops (including micro ops) committed (thread level) (Count)
system.cpu0.commitStats0.numInstsNotNOP             0                       # Number of instructions committed excluding NOPs or prefetches (Count)
system.cpu0.commitStats0.numOpsNotNOP               0                       # Number of Ops (including micro ops) Simulated (Count)
system.cpu0.commitStats0.cpi                10.027712                       # CPI: cycles per instruction (thread level) ((Cycle/Count))
system.cpu0.commitStats0.ipc                 0.099724                       # IPC: instructions per cycle (thread level) ((Count/Cycle))
system.cpu0.commitStats0.numMemRefs                 0                       # Number of memory references committed (Count)
system.cpu0.commitStats0.numFpInsts              1354                       # Number of float instructions (Count)
system.cpu0.commitStats0.numIntInsts           271052                       # Number of integer instructions (Count)
system.cpu0.commitStats0.numLoadInsts           11955                       # Number of load instructions (Count)
system.cpu0.commitStats0.numStoreInsts          12550                       # Number of store instructions (Count)
system.cpu0.commitStats0.numVecInsts                0                       # Number of vector instructions (Count)
system.cpu0.commitStats0.committedInstType::No_OpClass          209      0.08%      0.08% # Class of committed instruction. (Count)
system.cpu0.commitStats0.committedInstType::IntAlu       246613     90.70%     90.77% # Class of committed instruction. (Count)
system.cpu0.commitStats0.committedInstType::IntMult           12      0.00%     90.78% # Class of committed instruction. (Count)
system.cpu0.commitStats0.committedInstType::IntDiv           21      0.01%     90.78% # Class of committed instruction. (Count)
system.cpu0.commitStats0.committedInstType::FloatAdd          172      0.06%     90.85% # Class of committed instruction. (Count)
system.cpu0.commitStats0.committedInstType::FloatCmp            0      0.00%     90.85% # Class of committed instruction. (Count)
system.cpu0.commitStats0.committedInstType::FloatCvt            0      0.00%     90.85% # Class of committed instruction. (Count)
system.cpu0.commitStats0.committedInstType::FloatMult            0      0.00%     90.85% # Class of committed instruction. (Count)
system.cpu0.commitStats0.committedInstType::FloatMultAcc            0      0.00%     90.85% # Class of committed instruction. (Count)
system.cpu0.commitStats0.committedInstType::FloatDiv            0      0.00%     90.85% # Class of committed instruction. (Count)
system.cpu0.commitStats0.committedInstType::FloatMisc            0      0.00%     90.85% # Class of committed instruction. (Count)
system.cpu0.commitStats0.committedInstType::FloatSqrt            0      0.00%     90.85% # Class of committed instruction. (Count)
system.cpu0.commitStats0.committedInstType::SimdAdd            8      0.00%     90.85% # Class of committed instruction. (Count)
system.cpu0.commitStats0.committedInstType::SimdAddAcc            0      0.00%     90.85% # Class of committed instruction. (Count)
system.cpu0.commitStats0.committedInstType::SimdAlu           96      0.04%     90.89% # Class of committed instruction. (Count)
system.cpu0.commitStats0.committedInstType::SimdCmp            0      0.00%     90.89% # Class of committed instruction. (Count)
system.cpu0.commitStats0.committedInstType::SimdCvt           48      0.02%     90.90% # Class of committed instruction. (Count)
system.cpu0.commitStats0.committedInstType::SimdMisc          229      0.08%     90.99% # Class of committed instruction. (Count)
system.cpu0.commitStats0.committedInstType::SimdMult            0      0.00%     90.99% # Class of committed instruction. (Count)
system.cpu0.commitStats0.committedInstType::SimdMultAcc            0      0.00%     90.99% # Class of committed instruction. (Count)
system.cpu0.commitStats0.committedInstType::SimdMatMultAcc            0      0.00%     90.99% # Class of committed instruction. (Count)
system.cpu0.commitStats0.committedInstType::SimdShift            0      0.00%     90.99% # Class of committed instruction. (Count)
system.cpu0.commitStats0.committedInstType::SimdShiftAcc            0      0.00%     90.99% # Class of committed instruction. (Count)
system.cpu0.commitStats0.committedInstType::SimdDiv            0      0.00%     90.99% # Class of committed instruction. (Count)
system.cpu0.commitStats0.committedInstType::SimdSqrt            0      0.00%     90.99% # Class of committed instruction. (Count)
system.cpu0.commitStats0.committedInstType::SimdFloatAdd            0      0.00%     90.99% # Class of committed instruction. (Count)
system.cpu0.commitStats0.committedInstType::SimdFloatAlu            0      0.00%     90.99% # Class of committed instruction. (Count)
system.cpu0.commitStats0.committedInstType::SimdFloatCmp            0      0.00%     90.99% # Class of committed instruction. (Count)
system.cpu0.commitStats0.committedInstType::SimdFloatCvt            0      0.00%     90.99% # Class of committed instruction. (Count)
system.cpu0.commitStats0.committedInstType::SimdFloatDiv            0      0.00%     90.99% # Class of committed instruction. (Count)
system.cpu0.commitStats0.committedInstType::SimdFloatMisc            0      0.00%     90.99% # Class of committed instruction. (Count)
system.cpu0.commitStats0.committedInstType::SimdFloatMult            0      0.00%     90.99% # Class of committed instruction. (Count)
system.cpu0.commitStats0.committedInstType::SimdFloatMultAcc            0      0.00%     90.99% # Class of committed instruction. (Count)
system.cpu0.commitStats0.committedInstType::SimdFloatMatMultAcc            0      0.00%     90.99% # Class of committed instruction. (Count)
system.cpu0.commitStats0.committedInstType::SimdFloatSqrt            0      0.00%     90.99% # Class of committed instruction. (Count)
system.cpu0.commitStats0.committedInstType::SimdReduceAdd            0      0.00%     90.99% # Class of committed instruction. (Count)
system.cpu0.commitStats0.committedInstType::SimdReduceAlu            0      0.00%     90.99% # Class of committed instruction. (Count)
system.cpu0.commitStats0.committedInstType::SimdReduceCmp            0      0.00%     90.99% # Class of committed instruction. (Count)
system.cpu0.commitStats0.committedInstType::SimdFloatReduceAdd            0      0.00%     90.99% # Class of committed instruction. (Count)
system.cpu0.commitStats0.committedInstType::SimdFloatReduceCmp            0      0.00%     90.99% # Class of committed instruction. (Count)
system.cpu0.commitStats0.committedInstType::SimdAes            0      0.00%     90.99% # Class of committed instruction. (Count)
system.cpu0.commitStats0.committedInstType::SimdAesMix            0      0.00%     90.99% # Class of committed instruction. (Count)
system.cpu0.commitStats0.committedInstType::SimdSha1Hash            0      0.00%     90.99% # Class of committed instruction. (Count)
system.cpu0.commitStats0.committedInstType::SimdSha1Hash2            0      0.00%     90.99% # Class of committed instruction. (Count)
system.cpu0.commitStats0.committedInstType::SimdSha256Hash            0      0.00%     90.99% # Class of committed instruction. (Count)
system.cpu0.commitStats0.committedInstType::SimdSha256Hash2            0      0.00%     90.99% # Class of committed instruction. (Count)
system.cpu0.commitStats0.committedInstType::SimdShaSigma2            0      0.00%     90.99% # Class of committed instruction. (Count)
system.cpu0.commitStats0.committedInstType::SimdShaSigma3            0      0.00%     90.99% # Class of committed instruction. (Count)
system.cpu0.commitStats0.committedInstType::SimdPredAlu            0      0.00%     90.99% # Class of committed instruction. (Count)
system.cpu0.commitStats0.committedInstType::Matrix            0      0.00%     90.99% # Class of committed instruction. (Count)
system.cpu0.commitStats0.committedInstType::MatrixMov            0      0.00%     90.99% # Class of committed instruction. (Count)
system.cpu0.commitStats0.committedInstType::MatrixOP            0      0.00%     90.99% # Class of committed instruction. (Count)
system.cpu0.commitStats0.committedInstType::MemRead        11834      4.35%     95.34% # Class of committed instruction. (Count)
system.cpu0.commitStats0.committedInstType::MemWrite        12027      4.42%     99.76% # Class of committed instruction. (Count)
system.cpu0.commitStats0.committedInstType::FloatMemRead          121      0.04%     99.81% # Class of committed instruction. (Count)
system.cpu0.commitStats0.committedInstType::FloatMemWrite          523      0.19%    100.00% # Class of committed instruction. (Count)
system.cpu0.commitStats0.committedInstType::IprAccess            0      0.00%    100.00% # Class of committed instruction. (Count)
system.cpu0.commitStats0.committedInstType::InstPrefetch            0      0.00%    100.00% # Class of committed instruction. (Count)
system.cpu0.commitStats0.committedInstType::SimdUnitStrideLoad            0      0.00%    100.00% # Class of committed instruction. (Count)
system.cpu0.commitStats0.committedInstType::SimdUnitStrideStore            0      0.00%    100.00% # Class of committed instruction. (Count)
system.cpu0.commitStats0.committedInstType::SimdUnitStrideMaskLoad            0      0.00%    100.00% # Class of committed instruction. (Count)
system.cpu0.commitStats0.committedInstType::SimdUnitStrideMaskStore            0      0.00%    100.00% # Class of committed instruction. (Count)
system.cpu0.commitStats0.committedInstType::SimdStridedLoad            0      0.00%    100.00% # Class of committed instruction. (Count)
system.cpu0.commitStats0.committedInstType::SimdStridedStore            0      0.00%    100.00% # Class of committed instruction. (Count)
system.cpu0.commitStats0.committedInstType::SimdIndexedLoad            0      0.00%    100.00% # Class of committed instruction. (Count)
system.cpu0.commitStats0.committedInstType::SimdIndexedStore            0      0.00%    100.00% # Class of committed instruction. (Count)
system.cpu0.commitStats0.committedInstType::SimdWholeRegisterLoad            0      0.00%    100.00% # Class of committed instruction. (Count)
system.cpu0.commitStats0.committedInstType::SimdWholeRegisterStore            0      0.00%    100.00% # Class of committed instruction. (Count)
system.cpu0.commitStats0.committedInstType::SimdUnitStrideFaultOnlyFirstLoad            0      0.00%    100.00% # Class of committed instruction. (Count)
system.cpu0.commitStats0.committedInstType::SimdUnitStrideSegmentedLoad            0      0.00%    100.00% # Class of committed instruction. (Count)
system.cpu0.commitStats0.committedInstType::SimdUnitStrideSegmentedStore            0      0.00%    100.00% # Class of committed instruction. (Count)
system.cpu0.commitStats0.committedInstType::SimdUnitStrideSegmentedFaultOnlyFirstLoad            0      0.00%    100.00% # Class of committed instruction. (Count)
system.cpu0.commitStats0.committedInstType::SimdStrideSegmentedLoad            0      0.00%    100.00% # Class of committed instruction. (Count)
system.cpu0.commitStats0.committedInstType::SimdStrideSegmentedStore            0      0.00%    100.00% # Class of committed instruction. (Count)
system.cpu0.commitStats0.committedInstType::SimdExt            0      0.00%    100.00% # Class of committed instruction. (Count)
system.cpu0.commitStats0.committedInstType::SimdFloatExt            0      0.00%    100.00% # Class of committed instruction. (Count)
system.cpu0.commitStats0.committedInstType::SimdConfig            0      0.00%    100.00% # Class of committed instruction. (Count)
system.cpu0.commitStats0.committedInstType::total       271913                       # Class of committed instruction. (Count)
system.cpu0.commitStats0.committedControl::IsControl        52168                       # Class of control type instructions committed (Count)
system.cpu0.commitStats0.committedControl::IsDirectControl        51920                       # Class of control type instructions committed (Count)
system.cpu0.commitStats0.committedControl::IsIndirectControl          248                       # Class of control type instructions committed (Count)
system.cpu0.commitStats0.committedControl::IsCondControl        41631                       # Class of control type instructions committed (Count)
system.cpu0.commitStats0.committedControl::IsUncondControl        10537                       # Class of control type instructions committed (Count)
system.cpu0.commitStats0.committedControl::IsCall          180                       # Class of control type instructions committed (Count)
system.cpu0.commitStats0.committedControl::IsReturn          175                       # Class of control type instructions committed (Count)
system.cpu0.exec_context.thread_0.numMatAluAccesses            0                       # Number of matrix alu accesses (Count)
system.cpu0.exec_context.thread_0.numCallsReturns          355                       # Number of times a function call or return occured (Count)
system.cpu0.exec_context.thread_0.numMatInsts            0                       # Number of matrix instructions (Count)
system.cpu0.exec_context.thread_0.numIdleCycles    98.995096                       # Number of idle cycles (Cycle)
system.cpu0.exec_context.thread_0.numBusyCycles 1419474.004904                       # Number of busy cycles (Cycle)
system.cpu0.exec_context.thread_0.notIdleFraction     0.999930                       # Percentage of non-idle cycles (Ratio)
system.cpu0.exec_context.thread_0.idleFraction     0.000070                       # Percentage of idle cycles (Ratio)
system.cpu0.executeStats0.numInsts                  0                       # Number of executed instructions (Count)
system.cpu0.executeStats0.numNop                    0                       # Number of nop insts executed (Count)
system.cpu0.executeStats0.numBranches               0                       # Number of branches executed (Count)
system.cpu0.executeStats0.numLoadInsts              0                       # Number of load instructions executed (Count)
system.cpu0.executeStats0.numStoreInsts         24505                       # Number of stores executed (Count)
system.cpu0.executeStats0.instRate                  0                       # Inst execution rate ((Count/Cycle))
system.cpu0.executeStats0.numFpAluAccesses         1354                       # Number of float alu accesses (Count)
system.cpu0.executeStats0.numFpRegReads          1462                       # Number of times the floating registers were read (Count)
system.cpu0.executeStats0.numFpRegWrites          785                       # Number of times the floating registers were written (Count)
system.cpu0.executeStats0.numIntAluAccesses       271052                       # Number of integer alu accesses (Count)
system.cpu0.executeStats0.numIntRegReads       283648                       # Number of times the integer registers were read (Count)
system.cpu0.executeStats0.numIntRegWrites       164733                       # Number of times the integer registers were written (Count)
system.cpu0.executeStats0.numMemRefs            24505                       # Number of memory refs (Count)
system.cpu0.executeStats0.numMiscRegReads       129056                       # Number of times the Misc registers were read (Count)
system.cpu0.executeStats0.numVecAluAccesses            0                       # Number of vector alu accesses (Count)
system.cpu0.executeStats0.numDiscardedOps            0                       # Number of ops (including micro ops) which were discarded before commit (Count)
system.cpu0.fetchStats0.numInsts               141565                       # Number of instructions fetched (thread level) (Count)
system.cpu0.fetchStats0.numOps                 271913                       # Number of ops (including micro ops) fetched (thread level) (Count)
system.cpu0.fetchStats0.fetchRate            0.099724                       # Number of inst fetches per cycle ((Count/Cycle))
system.cpu0.fetchStats0.numBranches             52168                       # Number of branches fetched (Count)
system.cpu0.fetchStats0.branchRate           0.036749                       # Number of branch fetches per cycle (Ratio)
system.cpu0.fetchStats0.numFetchSuspends            0                       # Number of times Execute suspended instruction fetching (Count)
system.cpu0.interrupts.clk_domain.clock          8000                       # Clock period in ticks (Tick)
system.cpu0.mmu.dtb.rdAccesses                  11959                       # TLB accesses on read requests (Count)
system.cpu0.mmu.dtb.wrAccesses                  12550                       # TLB accesses on write requests (Count)
system.cpu0.mmu.dtb.rdMisses                       15                       # TLB misses on read requests (Count)
system.cpu0.mmu.dtb.wrMisses                       11                       # TLB misses on write requests (Count)
system.cpu0.mmu.dtb.walker.power_state.pwrStateResidencyTicks::UNDEFINED    709836000                       # Cumulative time (in ticks) in various power states (Tick)
system.cpu0.mmu.itb.rdAccesses                      0                       # TLB accesses on read requests (Count)
system.cpu0.mmu.itb.wrAccesses                 205971                       # TLB accesses on write requests (Count)
system.cpu0.mmu.itb.rdMisses                        0                       # TLB misses on read requests (Count)
system.cpu0.mmu.itb.wrMisses                       46                       # TLB misses on write requests (Count)
system.cpu0.mmu.itb.walker.power_state.pwrStateResidencyTicks::UNDEFINED    709836000                       # Cumulative time (in ticks) in various power states (Tick)
system.cpu0.power_state.pwrStateResidencyTicks::ON    709836000                       # Cumulative time (in ticks) in various power states (Tick)
system.cpu0.thread_0.numInsts                       0                       # Number of Instructions committed (Count)
system.cpu0.thread_0.numOps                         0                       # Number of Ops committed (Count)
system.cpu0.thread_0.numMemRefs                     0                       # Number of Memory References (Count)
system.cpu0.workload.numSyscalls                   15                       # Number of system calls (Count)
system.cpu1.numCycles                         1419672                       # Number of cpu cycles simulated (Cycle)
system.cpu1.cpi                              9.788749                       # CPI: cycles per instruction (core level) ((Cycle/Count))
system.cpu1.ipc                              0.102158                       # IPC: instructions per cycle (core level) ((Count/Cycle))
system.cpu1.numWorkItemsStarted                     0                       # Number of work items this cpu started (Count)
system.cpu1.numWorkItemsCompleted                   0                       # Number of work items this cpu completed (Count)
system.cpu1.commitStats0.numInsts              145031                       # Number of instructions committed (thread level) (Count)
system.cpu1.commitStats0.numOps                280925                       # Number of ops (including micro ops) committed (thread level) (Count)
system.cpu1.commitStats0.numInstsNotNOP             0                       # Number of instructions committed excluding NOPs or prefetches (Count)
system.cpu1.commitStats0.numOpsNotNOP               0                       # Number of Ops (including micro ops) Simulated (Count)
system.cpu1.commitStats0.cpi                 9.788749                       # CPI: cycles per instruction (thread level) ((Cycle/Count))
system.cpu1.commitStats0.ipc                 0.102158                       # IPC: instructions per cycle (thread level) ((Count/Cycle))
system.cpu1.commitStats0.numMemRefs                 0                       # Number of memory references committed (Count)
system.cpu1.commitStats0.numFpInsts              1354                       # Number of float instructions (Count)
system.cpu1.commitStats0.numIntInsts           280065                       # Number of integer instructions (Count)
system.cpu1.commitStats0.numLoadInsts           13571                       # Number of load instructions (Count)
system.cpu1.commitStats0.numStoreInsts          11895                       # Number of store instructions (Count)
system.cpu1.commitStats0.numVecInsts                0                       # Number of vector instructions (Count)
system.cpu1.commitStats0.committedInstType::No_OpClass          209      0.07%      0.07% # Class of committed instruction. (Count)
system.cpu1.commitStats0.committedInstType::IntAlu       254664     90.65%     90.73% # Class of committed instruction. (Count)
system.cpu1.commitStats0.committedInstType::IntMult           12      0.00%     90.73% # Class of committed instruction. (Count)
system.cpu1.commitStats0.committedInstType::IntDiv           21      0.01%     90.74% # Class of committed instruction. (Count)
system.cpu1.commitStats0.committedInstType::FloatAdd          172      0.06%     90.80% # Class of committed instruction. (Count)
system.cpu1.commitStats0.committedInstType::FloatCmp            0      0.00%     90.80% # Class of committed instruction. (Count)
system.cpu1.commitStats0.committedInstType::FloatCvt            0      0.00%     90.80% # Class of committed instruction. (Count)
system.cpu1.commitStats0.committedInstType::FloatMult            0      0.00%     90.80% # Class of committed instruction. (Count)
system.cpu1.commitStats0.committedInstType::FloatMultAcc            0      0.00%     90.80% # Class of committed instruction. (Count)
system.cpu1.commitStats0.committedInstType::FloatDiv            0      0.00%     90.80% # Class of committed instruction. (Count)
system.cpu1.commitStats0.committedInstType::FloatMisc            0      0.00%     90.80% # Class of committed instruction. (Count)
system.cpu1.commitStats0.committedInstType::FloatSqrt            0      0.00%     90.80% # Class of committed instruction. (Count)
system.cpu1.commitStats0.committedInstType::SimdAdd            8      0.00%     90.80% # Class of committed instruction. (Count)
system.cpu1.commitStats0.committedInstType::SimdAddAcc            0      0.00%     90.80% # Class of committed instruction. (Count)
system.cpu1.commitStats0.committedInstType::SimdAlu           96      0.03%     90.84% # Class of committed instruction. (Count)
system.cpu1.commitStats0.committedInstType::SimdCmp            0      0.00%     90.84% # Class of committed instruction. (Count)
system.cpu1.commitStats0.committedInstType::SimdCvt           48      0.02%     90.85% # Class of committed instruction. (Count)
system.cpu1.commitStats0.committedInstType::SimdMisc          229      0.08%     90.93% # Class of committed instruction. (Count)
system.cpu1.commitStats0.committedInstType::SimdMult            0      0.00%     90.93% # Class of committed instruction. (Count)
system.cpu1.commitStats0.committedInstType::SimdMultAcc            0      0.00%     90.93% # Class of committed instruction. (Count)
system.cpu1.commitStats0.committedInstType::SimdMatMultAcc            0      0.00%     90.93% # Class of committed instruction. (Count)
system.cpu1.commitStats0.committedInstType::SimdShift            0      0.00%     90.93% # Class of committed instruction. (Count)
system.cpu1.commitStats0.committedInstType::SimdShiftAcc            0      0.00%     90.93% # Class of committed instruction. (Count)
system.cpu1.commitStats0.committedInstType::SimdDiv            0      0.00%     90.93% # Class of committed instruction. (Count)
system.cpu1.commitStats0.committedInstType::SimdSqrt            0      0.00%     90.93% # Class of committed instruction. (Count)
system.cpu1.commitStats0.committedInstType::SimdFloatAdd            0      0.00%     90.93% # Class of committed instruction. (Count)
system.cpu1.commitStats0.committedInstType::SimdFloatAlu            0      0.00%     90.93% # Class of committed instruction. (Count)
system.cpu1.commitStats0.committedInstType::SimdFloatCmp            0      0.00%     90.93% # Class of committed instruction. (Count)
system.cpu1.commitStats0.committedInstType::SimdFloatCvt            0      0.00%     90.93% # Class of committed instruction. (Count)
system.cpu1.commitStats0.committedInstType::SimdFloatDiv            0      0.00%     90.93% # Class of committed instruction. (Count)
system.cpu1.commitStats0.committedInstType::SimdFloatMisc            0      0.00%     90.93% # Class of committed instruction. (Count)
system.cpu1.commitStats0.committedInstType::SimdFloatMult            0      0.00%     90.93% # Class of committed instruction. (Count)
system.cpu1.commitStats0.committedInstType::SimdFloatMultAcc            0      0.00%     90.93% # Class of committed instruction. (Count)
system.cpu1.commitStats0.committedInstType::SimdFloatMatMultAcc            0      0.00%     90.93% # Class of committed instruction. (Count)
system.cpu1.commitStats0.committedInstType::SimdFloatSqrt            0      0.00%     90.93% # Class of committed instruction. (Count)
system.cpu1.commitStats0.committedInstType::SimdReduceAdd            0      0.00%     90.93% # Class of committed instruction. (Count)
system.cpu1.commitStats0.committedInstType::SimdReduceAlu            0      0.00%     90.93% # Class of committed instruction. (Count)
system.cpu1.commitStats0.committedInstType::SimdReduceCmp            0      0.00%     90.93% # Class of committed instruction. (Count)
system.cpu1.commitStats0.committedInstType::SimdFloatReduceAdd            0      0.00%     90.93% # Class of committed instruction. (Count)
system.cpu1.commitStats0.committedInstType::SimdFloatReduceCmp            0      0.00%     90.93% # Class of committed instruction. (Count)
system.cpu1.commitStats0.committedInstType::SimdAes            0      0.00%     90.93% # Class of committed instruction. (Count)
system.cpu1.commitStats0.committedInstType::SimdAesMix            0      0.00%     90.93% # Class of committed instruction. (Count)
system.cpu1.commitStats0.committedInstType::SimdSha1Hash            0      0.00%     90.93% # Class of committed instruction. (Count)
system.cpu1.commitStats0.committedInstType::SimdSha1Hash2            0      0.00%     90.93% # Class of committed instruction. (Count)
system.cpu1.commitStats0.committedInstType::SimdSha256Hash            0      0.00%     90.93% # Class of committed instruction. (Count)
system.cpu1.commitStats0.committedInstType::SimdSha256Hash2            0      0.00%     90.93% # Class of committed instruction. (Count)
system.cpu1.commitStats0.committedInstType::SimdShaSigma2            0      0.00%     90.93% # Class of committed instruction. (Count)
system.cpu1.commitStats0.committedInstType::SimdShaSigma3            0      0.00%     90.93% # Class of committed instruction. (Count)
system.cpu1.commitStats0.committedInstType::SimdPredAlu            0      0.00%     90.93% # Class of committed instruction. (Count)
system.cpu1.commitStats0.committedInstType::Matrix            0      0.00%     90.93% # Class of committed instruction. (Count)
system.cpu1.commitStats0.committedInstType::MatrixMov            0      0.00%     90.93% # Class of committed instruction. (Count)
system.cpu1.commitStats0.committedInstType::MatrixOP            0      0.00%     90.93% # Class of committed instruction. (Count)
system.cpu1.commitStats0.committedInstType::MemRead        13450      4.79%     95.72% # Class of committed instruction. (Count)
system.cpu1.commitStats0.committedInstType::MemWrite        11372      4.05%     99.77% # Class of committed instruction. (Count)
system.cpu1.commitStats0.committedInstType::FloatMemRead          121      0.04%     99.81% # Class of committed instruction. (Count)
system.cpu1.commitStats0.committedInstType::FloatMemWrite          523      0.19%    100.00% # Class of committed instruction. (Count)
system.cpu1.commitStats0.committedInstType::IprAccess            0      0.00%    100.00% # Class of committed instruction. (Count)
system.cpu1.commitStats0.committedInstType::InstPrefetch            0      0.00%    100.00% # Class of committed instruction. (Count)
system.cpu1.commitStats0.committedInstType::SimdUnitStrideLoad            0      0.00%    100.00% # Class of committed instruction. (Count)
system.cpu1.commitStats0.committedInstType::SimdUnitStrideStore            0      0.00%    100.00% # Class of committed instruction. (Count)
system.cpu1.commitStats0.committedInstType::SimdUnitStrideMaskLoad            0      0.00%    100.00% # Class of committed instruction. (Count)
system.cpu1.commitStats0.committedInstType::SimdUnitStrideMaskStore            0      0.00%    100.00% # Class of committed instruction. (Count)
system.cpu1.commitStats0.committedInstType::SimdStridedLoad            0      0.00%    100.00% # Class of committed instruction. (Count)
system.cpu1.commitStats0.committedInstType::SimdStridedStore            0      0.00%    100.00% # Class of committed instruction. (Count)
system.cpu1.commitStats0.committedInstType::SimdIndexedLoad            0      0.00%    100.00% # Class of committed instruction. (Count)
system.cpu1.commitStats0.committedInstType::SimdIndexedStore            0      0.00%    100.00% # Class of committed instruction. (Count)
system.cpu1.commitStats0.committedInstType::SimdWholeRegisterLoad            0      0.00%    100.00% # Class of committed instruction. (Count)
system.cpu1.commitStats0.committedInstType::SimdWholeRegisterStore            0      0.00%    100.00% # Class of committed instruction. (Count)
system.cpu1.commitStats0.committedInstType::SimdUnitStrideFaultOnlyFirstLoad            0      0.00%    100.00% # Class of committed instruction. (Count)
system.cpu1.commitStats0.committedInstType::SimdUnitStrideSegmentedLoad            0      0.00%    100.00% # Class of committed instruction. (Count)
system.cpu1.commitStats0.committedInstType::SimdUnitStrideSegmentedStore            0      0.00%    100.00% # Class of committed instruction. (Count)
system.cpu1.commitStats0.committedInstType::SimdUnitStrideSegmentedFaultOnlyFirstLoad            0      0.00%    100.00% # Class of committed instruction. (Count)
system.cpu1.commitStats0.committedInstType::SimdStrideSegmentedLoad            0      0.00%    100.00% # Class of committed instruction. (Count)
system.cpu1.commitStats0.committedInstType::SimdStrideSegmentedStore            0      0.00%    100.00% # Class of committed instruction. (Count)
system.cpu1.commitStats0.committedInstType::SimdExt            0      0.00%    100.00% # Class of committed instruction. (Count)
system.cpu1.commitStats0.committedInstType::SimdFloatExt            0      0.00%    100.00% # Class of committed instruction. (Count)
system.cpu1.commitStats0.committedInstType::SimdConfig            0      0.00%    100.00% # Class of committed instruction. (Count)
system.cpu1.commitStats0.committedInstType::total       280925                       # Class of committed instruction. (Count)
system.cpu1.commitStats0.committedControl::IsControl        53735                       # Class of control type instructions committed (Count)
system.cpu1.commitStats0.committedControl::IsDirectControl        53487                       # Class of control type instructions committed (Count)
system.cpu1.commitStats0.committedControl::IsIndirectControl          248                       # Class of control type instructions committed (Count)
system.cpu1.commitStats0.committedControl::IsCondControl        43199                       # Class of control type instructions committed (Count)
system.cpu1.commitStats0.committedControl::IsUncondControl        10536                       # Class of control type instructions committed (Count)
system.cpu1.commitStats0.committedControl::IsCall          180                       # Class of control type instructions committed (Count)
system.cpu1.commitStats0.committedControl::IsReturn          175                       # Class of control type instructions committed (Count)
system.cpu1.exec_context.thread_0.numMatAluAccesses            0                       # Number of matrix alu accesses (Count)
system.cpu1.exec_context.thread_0.numCallsReturns          355                       # Number of times a function call or return occured (Count)
system.cpu1.exec_context.thread_0.numMatInsts            0                       # Number of matrix instructions (Count)
system.cpu1.exec_context.thread_0.numIdleCycles     0.002000                       # Number of idle cycles (Cycle)
system.cpu1.exec_context.thread_0.numBusyCycles 1419671.998000                       # Number of busy cycles (Cycle)
system.cpu1.exec_context.thread_0.notIdleFraction     1.000000                       # Percentage of non-idle cycles (Ratio)
system.cpu1.exec_context.thread_0.idleFraction     0.000000                       # Percentage of idle cycles (Ratio)
system.cpu1.executeStats0.numInsts                  0                       # Number of executed instructions (Count)
system.cpu1.executeStats0.numNop                    0                       # Number of nop insts executed (Count)
system.cpu1.executeStats0.numBranches               0                       # Number of branches executed (Count)
system.cpu1.executeStats0.numLoadInsts              0                       # Number of load instructions executed (Count)
system.cpu1.executeStats0.numStoreInsts         25466                       # Number of stores executed (Count)
system.cpu1.executeStats0.instRate                  0                       # Inst execution rate ((Count/Cycle))
system.cpu1.executeStats0.numFpAluAccesses         1354                       # Number of float alu accesses (Count)
system.cpu1.executeStats0.numFpRegReads          1462                       # Number of times the floating registers were read (Count)
system.cpu1.executeStats0.numFpRegWrites          785                       # Number of times the floating registers were written (Count)
system.cpu1.executeStats0.numIntAluAccesses       280065                       # Number of integer alu accesses (Count)
system.cpu1.executeStats0.numIntRegReads       288942                       # Number of times the integer registers were read (Count)
system.cpu1.executeStats0.numIntRegWrites       171267                       # Number of times the integer registers were written (Count)
system.cpu1.executeStats0.numMemRefs            25466                       # Number of memory refs (Count)
system.cpu1.executeStats0.numMiscRegReads       133151                       # Number of times the Misc registers were read (Count)
system.cpu1.executeStats0.numVecAluAccesses            0                       # Number of vector alu accesses (Count)
system.cpu1.executeStats0.numDiscardedOps            0                       # Number of ops (including micro ops) which were discarded before commit (Count)
system.cpu1.fetchStats0.numInsts               145031                       # Number of instructions fetched (thread level) (Count)
system.cpu1.fetchStats0.numOps                 280925                       # Number of ops (including micro ops) fetched (thread level) (Count)
system.cpu1.fetchStats0.fetchRate            0.102158                       # Number of inst fetches per cycle ((Count/Cycle))
system.cpu1.fetchStats0.numBranches             53735                       # Number of branches fetched (Count)
system.cpu1.fetchStats0.branchRate           0.037850                       # Number of branch fetches per cycle (Ratio)
system.cpu1.fetchStats0.numFetchSuspends            0                       # Number of times Execute suspended instruction fetching (Count)
system.cpu1.interrupts.clk_domain.clock          8000                       # Clock period in ticks (Tick)
system.cpu1.mmu.dtb.rdAccesses                  13575                       # TLB accesses on read requests (Count)
system.cpu1.mmu.dtb.wrAccesses                  11895                       # TLB accesses on write requests (Count)
system.cpu1.mmu.dtb.rdMisses                       17                       # TLB misses on read requests (Count)
system.cpu1.mmu.dtb.wrMisses                        9                       # TLB misses on write requests (Count)
system.cpu1.mmu.dtb.walker.power_state.pwrStateResidencyTicks::UNDEFINED    709836000                       # Cumulative time (in ticks) in various power states (Tick)
system.cpu1.mmu.itb.rdAccesses                      0                       # TLB accesses on read requests (Count)
system.cpu1.mmu.itb.wrAccesses                 210026                       # TLB accesses on write requests (Count)
system.cpu1.mmu.itb.rdMisses                        0                       # TLB misses on read requests (Count)
system.cpu1.mmu.itb.wrMisses                       46                       # TLB misses on write requests (Count)
system.cpu1.mmu.itb.walker.power_state.pwrStateResidencyTicks::UNDEFINED    709836000                       # Cumulative time (in ticks) in various power states (Tick)
system.cpu1.power_state.pwrStateResidencyTicks::ON    709836000                       # Cumulative time (in ticks) in various power states (Tick)
system.cpu1.thread_0.numInsts                       0                       # Number of Instructions committed (Count)
system.cpu1.thread_0.numOps                         0                       # Number of Ops committed (Count)
system.cpu1.thread_0.numMemRefs                     0                       # Number of Memory References (Count)
system.cpu1.workload.numSyscalls                   15                       # Number of system calls (Count)
system.cpu2.numCycles                         1419563                       # Number of cpu cycles simulated (Cycle)
system.cpu2.cpi                              9.780107                       # CPI: cycles per instruction (core level) ((Cycle/Count))
system.cpu2.ipc                              0.102248                       # IPC: instructions per cycle (core level) ((Count/Cycle))
system.cpu2.numWorkItemsStarted                     0                       # Number of work items this cpu started (Count)
system.cpu2.numWorkItemsCompleted                   0                       # Number of work items this cpu completed (Count)
system.cpu2.commitStats0.numInsts              145148                       # Number of instructions committed (thread level) (Count)
system.cpu2.commitStats0.numOps                281200                       # Number of ops (including micro ops) committed (thread level) (Count)
system.cpu2.commitStats0.numInstsNotNOP             0                       # Number of instructions committed excluding NOPs or prefetches (Count)
system.cpu2.commitStats0.numOpsNotNOP               0                       # Number of Ops (including micro ops) Simulated (Count)
system.cpu2.commitStats0.cpi                 9.780107                       # CPI: cycles per instruction (thread level) ((Cycle/Count))
system.cpu2.commitStats0.ipc                 0.102248                       # IPC: instructions per cycle (thread level) ((Count/Cycle))
system.cpu2.commitStats0.numMemRefs                 0                       # Number of memory references committed (Count)
system.cpu2.commitStats0.numFpInsts              1354                       # Number of float instructions (Count)
system.cpu2.commitStats0.numIntInsts           280339                       # Number of integer instructions (Count)
system.cpu2.commitStats0.numLoadInsts           13620                       # Number of load instructions (Count)
system.cpu2.commitStats0.numStoreInsts          11893                       # Number of store instructions (Count)
system.cpu2.commitStats0.numVecInsts                0                       # Number of vector instructions (Count)
system.cpu2.commitStats0.committedInstType::No_OpClass          210      0.07%      0.07% # Class of committed instruction. (Count)
system.cpu2.commitStats0.committedInstType::IntAlu       254891     90.64%     90.72% # Class of committed instruction. (Count)
system.cpu2.commitStats0.committedInstType::IntMult           12      0.00%     90.72% # Class of committed instruction. (Count)
system.cpu2.commitStats0.committedInstType::IntDiv           21      0.01%     90.73% # Class of committed instruction. (Count)
system.cpu2.commitStats0.committedInstType::FloatAdd          172      0.06%     90.79% # Class of committed instruction. (Count)
system.cpu2.commitStats0.committedInstType::FloatCmp            0      0.00%     90.79% # Class of committed instruction. (Count)
system.cpu2.commitStats0.committedInstType::FloatCvt            0      0.00%     90.79% # Class of committed instruction. (Count)
system.cpu2.commitStats0.committedInstType::FloatMult            0      0.00%     90.79% # Class of committed instruction. (Count)
system.cpu2.commitStats0.committedInstType::FloatMultAcc            0      0.00%     90.79% # Class of committed instruction. (Count)
system.cpu2.commitStats0.committedInstType::FloatDiv            0      0.00%     90.79% # Class of committed instruction. (Count)
system.cpu2.commitStats0.committedInstType::FloatMisc            0      0.00%     90.79% # Class of committed instruction. (Count)
system.cpu2.commitStats0.committedInstType::FloatSqrt            0      0.00%     90.79% # Class of committed instruction. (Count)
system.cpu2.commitStats0.committedInstType::SimdAdd            8      0.00%     90.79% # Class of committed instruction. (Count)
system.cpu2.commitStats0.committedInstType::SimdAddAcc            0      0.00%     90.79% # Class of committed instruction. (Count)
system.cpu2.commitStats0.committedInstType::SimdAlu           96      0.03%     90.83% # Class of committed instruction. (Count)
system.cpu2.commitStats0.committedInstType::SimdCmp            0      0.00%     90.83% # Class of committed instruction. (Count)
system.cpu2.commitStats0.committedInstType::SimdCvt           48      0.02%     90.85% # Class of committed instruction. (Count)
system.cpu2.commitStats0.committedInstType::SimdMisc          229      0.08%     90.93% # Class of committed instruction. (Count)
system.cpu2.commitStats0.committedInstType::SimdMult            0      0.00%     90.93% # Class of committed instruction. (Count)
system.cpu2.commitStats0.committedInstType::SimdMultAcc            0      0.00%     90.93% # Class of committed instruction. (Count)
system.cpu2.commitStats0.committedInstType::SimdMatMultAcc            0      0.00%     90.93% # Class of committed instruction. (Count)
system.cpu2.commitStats0.committedInstType::SimdShift            0      0.00%     90.93% # Class of committed instruction. (Count)
system.cpu2.commitStats0.committedInstType::SimdShiftAcc            0      0.00%     90.93% # Class of committed instruction. (Count)
system.cpu2.commitStats0.committedInstType::SimdDiv            0      0.00%     90.93% # Class of committed instruction. (Count)
system.cpu2.commitStats0.committedInstType::SimdSqrt            0      0.00%     90.93% # Class of committed instruction. (Count)
system.cpu2.commitStats0.committedInstType::SimdFloatAdd            0      0.00%     90.93% # Class of committed instruction. (Count)
system.cpu2.commitStats0.committedInstType::SimdFloatAlu            0      0.00%     90.93% # Class of committed instruction. (Count)
system.cpu2.commitStats0.committedInstType::SimdFloatCmp            0      0.00%     90.93% # Class of committed instruction. (Count)
system.cpu2.commitStats0.committedInstType::SimdFloatCvt            0      0.00%     90.93% # Class of committed instruction. (Count)
system.cpu2.commitStats0.committedInstType::SimdFloatDiv            0      0.00%     90.93% # Class of committed instruction. (Count)
system.cpu2.commitStats0.committedInstType::SimdFloatMisc            0      0.00%     90.93% # Class of committed instruction. (Count)
system.cpu2.commitStats0.committedInstType::SimdFloatMult            0      0.00%     90.93% # Class of committed instruction. (Count)
system.cpu2.commitStats0.committedInstType::SimdFloatMultAcc            0      0.00%     90.93% # Class of committed instruction. (Count)
system.cpu2.commitStats0.committedInstType::SimdFloatMatMultAcc            0      0.00%     90.93% # Class of committed instruction. (Count)
system.cpu2.commitStats0.committedInstType::SimdFloatSqrt            0      0.00%     90.93% # Class of committed instruction. (Count)
system.cpu2.commitStats0.committedInstType::SimdReduceAdd            0      0.00%     90.93% # Class of committed instruction. (Count)
system.cpu2.commitStats0.committedInstType::SimdReduceAlu            0      0.00%     90.93% # Class of committed instruction. (Count)
system.cpu2.commitStats0.committedInstType::SimdReduceCmp            0      0.00%     90.93% # Class of committed instruction. (Count)
system.cpu2.commitStats0.committedInstType::SimdFloatReduceAdd            0      0.00%     90.93% # Class of committed instruction. (Count)
system.cpu2.commitStats0.committedInstType::SimdFloatReduceCmp            0      0.00%     90.93% # Class of committed instruction. (Count)
system.cpu2.commitStats0.committedInstType::SimdAes            0      0.00%     90.93% # Class of committed instruction. (Count)
system.cpu2.commitStats0.committedInstType::SimdAesMix            0      0.00%     90.93% # Class of committed instruction. (Count)
system.cpu2.commitStats0.committedInstType::SimdSha1Hash            0      0.00%     90.93% # Class of committed instruction. (Count)
system.cpu2.commitStats0.committedInstType::SimdSha1Hash2            0      0.00%     90.93% # Class of committed instruction. (Count)
system.cpu2.commitStats0.committedInstType::SimdSha256Hash            0      0.00%     90.93% # Class of committed instruction. (Count)
system.cpu2.commitStats0.committedInstType::SimdSha256Hash2            0      0.00%     90.93% # Class of committed instruction. (Count)
system.cpu2.commitStats0.committedInstType::SimdShaSigma2            0      0.00%     90.93% # Class of committed instruction. (Count)
system.cpu2.commitStats0.committedInstType::SimdShaSigma3            0      0.00%     90.93% # Class of committed instruction. (Count)
system.cpu2.commitStats0.committedInstType::SimdPredAlu            0      0.00%     90.93% # Class of committed instruction. (Count)
system.cpu2.commitStats0.committedInstType::Matrix            0      0.00%     90.93% # Class of committed instruction. (Count)
system.cpu2.commitStats0.committedInstType::MatrixMov            0      0.00%     90.93% # Class of committed instruction. (Count)
system.cpu2.commitStats0.committedInstType::MatrixOP            0      0.00%     90.93% # Class of committed instruction. (Count)
system.cpu2.commitStats0.committedInstType::MemRead        13499      4.80%     95.73% # Class of committed instruction. (Count)
system.cpu2.commitStats0.committedInstType::MemWrite        11370      4.04%     99.77% # Class of committed instruction. (Count)
system.cpu2.commitStats0.committedInstType::FloatMemRead          121      0.04%     99.81% # Class of committed instruction. (Count)
system.cpu2.commitStats0.committedInstType::FloatMemWrite          523      0.19%    100.00% # Class of committed instruction. (Count)
system.cpu2.commitStats0.committedInstType::IprAccess            0      0.00%    100.00% # Class of committed instruction. (Count)
system.cpu2.commitStats0.committedInstType::InstPrefetch            0      0.00%    100.00% # Class of committed instruction. (Count)
system.cpu2.commitStats0.committedInstType::SimdUnitStrideLoad            0      0.00%    100.00% # Class of committed instruction. (Count)
system.cpu2.commitStats0.committedInstType::SimdUnitStrideStore            0      0.00%    100.00% # Class of committed instruction. (Count)
system.cpu2.commitStats0.committedInstType::SimdUnitStrideMaskLoad            0      0.00%    100.00% # Class of committed instruction. (Count)
system.cpu2.commitStats0.committedInstType::SimdUnitStrideMaskStore            0      0.00%    100.00% # Class of committed instruction. (Count)
system.cpu2.commitStats0.committedInstType::SimdStridedLoad            0      0.00%    100.00% # Class of committed instruction. (Count)
system.cpu2.commitStats0.committedInstType::SimdStridedStore            0      0.00%    100.00% # Class of committed instruction. (Count)
system.cpu2.commitStats0.committedInstType::SimdIndexedLoad            0      0.00%    100.00% # Class of committed instruction. (Count)
system.cpu2.commitStats0.committedInstType::SimdIndexedStore            0      0.00%    100.00% # Class of committed instruction. (Count)
system.cpu2.commitStats0.committedInstType::SimdWholeRegisterLoad            0      0.00%    100.00% # Class of committed instruction. (Count)
system.cpu2.commitStats0.committedInstType::SimdWholeRegisterStore            0      0.00%    100.00% # Class of committed instruction. (Count)
system.cpu2.commitStats0.committedInstType::SimdUnitStrideFaultOnlyFirstLoad            0      0.00%    100.00% # Class of committed instruction. (Count)
system.cpu2.commitStats0.committedInstType::SimdUnitStrideSegmentedLoad            0      0.00%    100.00% # Class of committed instruction. (Count)
system.cpu2.commitStats0.committedInstType::SimdUnitStrideSegmentedStore            0      0.00%    100.00% # Class of committed instruction. (Count)
system.cpu2.commitStats0.committedInstType::SimdUnitStrideSegmentedFaultOnlyFirstLoad            0      0.00%    100.00% # Class of committed instruction. (Count)
system.cpu2.commitStats0.committedInstType::SimdStrideSegmentedLoad            0      0.00%    100.00% # Class of committed instruction. (Count)
system.cpu2.commitStats0.committedInstType::SimdStrideSegmentedStore            0      0.00%    100.00% # Class of committed instruction. (Count)
system.cpu2.commitStats0.committedInstType::SimdExt            0      0.00%    100.00% # Class of committed instruction. (Count)
system.cpu2.commitStats0.committedInstType::SimdFloatExt            0      0.00%    100.00% # Class of committed instruction. (Count)
system.cpu2.commitStats0.committedInstType::SimdConfig            0      0.00%    100.00% # Class of committed instruction. (Count)
system.cpu2.commitStats0.committedInstType::total       281200                       # Class of committed instruction. (Count)
system.cpu2.commitStats0.committedControl::IsControl        53775                       # Class of control type instructions committed (Count)
system.cpu2.commitStats0.committedControl::IsDirectControl        53527                       # Class of control type instructions committed (Count)
system.cpu2.commitStats0.committedControl::IsIndirectControl          248                       # Class of control type instructions committed (Count)
system.cpu2.commitStats0.committedControl::IsCondControl        43239                       # Class of control type instructions committed (Count)
system.cpu2.commitStats0.committedControl::IsUncondControl        10536                       # Class of control type instructions committed (Count)
system.cpu2.commitStats0.committedControl::IsCall          180                       # Class of control type instructions committed (Count)
system.cpu2.commitStats0.committedControl::IsReturn          175                       # Class of control type instructions committed (Count)
system.cpu2.exec_context.thread_0.numMatAluAccesses            0                       # Number of matrix alu accesses (Count)
system.cpu2.exec_context.thread_0.numCallsReturns          355                       # Number of times a function call or return occured (Count)
system.cpu2.exec_context.thread_0.numMatInsts            0                       # Number of matrix instructions (Count)
system.cpu2.exec_context.thread_0.numIdleCycles   108.993631                       # Number of idle cycles (Cycle)
system.cpu2.exec_context.thread_0.numBusyCycles 1419454.006369                       # Number of busy cycles (Cycle)
system.cpu2.exec_context.thread_0.notIdleFraction     0.999923                       # Percentage of non-idle cycles (Ratio)
system.cpu2.exec_context.thread_0.idleFraction     0.000077                       # Percentage of idle cycles (Ratio)
system.cpu2.executeStats0.numInsts                  0                       # Number of executed instructions (Count)
system.cpu2.executeStats0.numNop                    0                       # Number of nop insts executed (Count)
system.cpu2.executeStats0.numBranches               0                       # Number of branches executed (Count)
system.cpu2.executeStats0.numLoadInsts              0                       # Number of load instructions executed (Count)
system.cpu2.executeStats0.numStoreInsts         25513                       # Number of stores executed (Count)
system.cpu2.executeStats0.instRate                  0                       # Inst execution rate ((Count/Cycle))
system.cpu2.executeStats0.numFpAluAccesses         1354                       # Number of float alu accesses (Count)
system.cpu2.executeStats0.numFpRegReads          1462                       # Number of times the floating registers were read (Count)
system.cpu2.executeStats0.numFpRegWrites          785                       # Number of times the floating registers were written (Count)
system.cpu2.executeStats0.numIntAluAccesses       280339                       # Number of integer alu accesses (Count)
system.cpu2.executeStats0.numIntRegReads       289147                       # Number of times the integer registers were read (Count)
system.cpu2.executeStats0.numIntRegWrites       171463                       # Number of times the integer registers were written (Count)
system.cpu2.executeStats0.numMemRefs            25513                       # Number of memory refs (Count)
system.cpu2.executeStats0.numMiscRegReads       133278                       # Number of times the Misc registers were read (Count)
system.cpu2.executeStats0.numVecAluAccesses            0                       # Number of vector alu accesses (Count)
system.cpu2.executeStats0.numDiscardedOps            0                       # Number of ops (including micro ops) which were discarded before commit (Count)
system.cpu2.fetchStats0.numInsts               145148                       # Number of instructions fetched (thread level) (Count)
system.cpu2.fetchStats0.numOps                 281200                       # Number of ops (including micro ops) fetched (thread level) (Count)
system.cpu2.fetchStats0.fetchRate            0.102248                       # Number of inst fetches per cycle ((Count/Cycle))
system.cpu2.fetchStats0.numBranches             53775                       # Number of branches fetched (Count)
system.cpu2.fetchStats0.branchRate           0.037881                       # Number of branch fetches per cycle (Ratio)
system.cpu2.fetchStats0.numFetchSuspends            0                       # Number of times Execute suspended instruction fetching (Count)
system.cpu2.interrupts.clk_domain.clock          8000                       # Clock period in ticks (Tick)
system.cpu2.mmu.dtb.rdAccesses                  13624                       # TLB accesses on read requests (Count)
system.cpu2.mmu.dtb.wrAccesses                  11893                       # TLB accesses on write requests (Count)
system.cpu2.mmu.dtb.rdMisses                       17                       # TLB misses on read requests (Count)
system.cpu2.mmu.dtb.wrMisses                        9                       # TLB misses on write requests (Count)
system.cpu2.mmu.dtb.walker.power_state.pwrStateResidencyTicks::UNDEFINED    709836000                       # Cumulative time (in ticks) in various power states (Tick)
system.cpu2.mmu.itb.rdAccesses                      0                       # TLB accesses on read requests (Count)
system.cpu2.mmu.itb.wrAccesses                 210182                       # TLB accesses on write requests (Count)
system.cpu2.mmu.itb.rdMisses                        0                       # TLB misses on read requests (Count)
system.cpu2.mmu.itb.wrMisses                       46                       # TLB misses on write requests (Count)
system.cpu2.mmu.itb.walker.power_state.pwrStateResidencyTicks::UNDEFINED    709836000                       # Cumulative time (in ticks) in various power states (Tick)
system.cpu2.power_state.pwrStateResidencyTicks::ON    709836000                       # Cumulative time (in ticks) in various power states (Tick)
system.cpu2.thread_0.numInsts                       0                       # Number of Instructions committed (Count)
system.cpu2.thread_0.numOps                         0                       # Number of Ops committed (Count)
system.cpu2.thread_0.numMemRefs                     0                       # Number of Memory References (Count)
system.cpu2.workload.numSyscalls                   15                       # Number of system calls (Count)
system.cpu3.numCycles                         1419374                       # Number of cpu cycles simulated (Cycle)
system.cpu3.cpi                              9.785682                       # CPI: cycles per instruction (core level) ((Cycle/Count))
system.cpu3.ipc                              0.102190                       # IPC: instructions per cycle (core level) ((Count/Cycle))
system.cpu3.numWorkItemsStarted                     0                       # Number of work items this cpu started (Count)
system.cpu3.numWorkItemsCompleted                   0                       # Number of work items this cpu completed (Count)
system.cpu3.commitStats0.numInsts              145046                       # Number of instructions committed (thread level) (Count)
system.cpu3.commitStats0.numOps                280960                       # Number of ops (including micro ops) committed (thread level) (Count)
system.cpu3.commitStats0.numInstsNotNOP             0                       # Number of instructions committed excluding NOPs or prefetches (Count)
system.cpu3.commitStats0.numOpsNotNOP               0                       # Number of Ops (including micro ops) Simulated (Count)
system.cpu3.commitStats0.cpi                 9.785682                       # CPI: cycles per instruction (thread level) ((Cycle/Count))
system.cpu3.commitStats0.ipc                 0.102190                       # IPC: instructions per cycle (thread level) ((Count/Cycle))
system.cpu3.commitStats0.numMemRefs                 0                       # Number of memory references committed (Count)
system.cpu3.commitStats0.numFpInsts              1354                       # Number of float instructions (Count)
system.cpu3.commitStats0.numIntInsts           280100                       # Number of integer instructions (Count)
system.cpu3.commitStats0.numLoadInsts           13570                       # Number of load instructions (Count)
system.cpu3.commitStats0.numStoreInsts          11895                       # Number of store instructions (Count)
system.cpu3.commitStats0.numVecInsts                0                       # Number of vector instructions (Count)
system.cpu3.commitStats0.committedInstType::No_OpClass          209      0.07%      0.07% # Class of committed instruction. (Count)
system.cpu3.commitStats0.committedInstType::IntAlu       254700     90.65%     90.73% # Class of committed instruction. (Count)
system.cpu3.commitStats0.committedInstType::IntMult           12      0.00%     90.73% # Class of committed instruction. (Count)
system.cpu3.commitStats0.committedInstType::IntDiv           21      0.01%     90.74% # Class of committed instruction. (Count)
system.cpu3.commitStats0.committedInstType::FloatAdd          172      0.06%     90.80% # Class of committed instruction. (Count)
system.cpu3.commitStats0.committedInstType::FloatCmp            0      0.00%     90.80% # Class of committed instruction. (Count)
system.cpu3.commitStats0.committedInstType::FloatCvt            0      0.00%     90.80% # Class of committed instruction. (Count)
system.cpu3.commitStats0.committedInstType::FloatMult            0      0.00%     90.80% # Class of committed instruction. (Count)
system.cpu3.commitStats0.committedInstType::FloatMultAcc            0      0.00%     90.80% # Class of committed instruction. (Count)
system.cpu3.commitStats0.committedInstType::FloatDiv            0      0.00%     90.80% # Class of committed instruction. (Count)
system.cpu3.commitStats0.committedInstType::FloatMisc            0      0.00%     90.80% # Class of committed instruction. (Count)
system.cpu3.commitStats0.committedInstType::FloatSqrt            0      0.00%     90.80% # Class of committed instruction. (Count)
system.cpu3.commitStats0.committedInstType::SimdAdd            8      0.00%     90.80% # Class of committed instruction. (Count)
system.cpu3.commitStats0.committedInstType::SimdAddAcc            0      0.00%     90.80% # Class of committed instruction. (Count)
system.cpu3.commitStats0.committedInstType::SimdAlu           96      0.03%     90.84% # Class of committed instruction. (Count)
system.cpu3.commitStats0.committedInstType::SimdCmp            0      0.00%     90.84% # Class of committed instruction. (Count)
system.cpu3.commitStats0.committedInstType::SimdCvt           48      0.02%     90.85% # Class of committed instruction. (Count)
system.cpu3.commitStats0.committedInstType::SimdMisc          229      0.08%     90.94% # Class of committed instruction. (Count)
system.cpu3.commitStats0.committedInstType::SimdMult            0      0.00%     90.94% # Class of committed instruction. (Count)
system.cpu3.commitStats0.committedInstType::SimdMultAcc            0      0.00%     90.94% # Class of committed instruction. (Count)
system.cpu3.commitStats0.committedInstType::SimdMatMultAcc            0      0.00%     90.94% # Class of committed instruction. (Count)
system.cpu3.commitStats0.committedInstType::SimdShift            0      0.00%     90.94% # Class of committed instruction. (Count)
system.cpu3.commitStats0.committedInstType::SimdShiftAcc            0      0.00%     90.94% # Class of committed instruction. (Count)
system.cpu3.commitStats0.committedInstType::SimdDiv            0      0.00%     90.94% # Class of committed instruction. (Count)
system.cpu3.commitStats0.committedInstType::SimdSqrt            0      0.00%     90.94% # Class of committed instruction. (Count)
system.cpu3.commitStats0.committedInstType::SimdFloatAdd            0      0.00%     90.94% # Class of committed instruction. (Count)
system.cpu3.commitStats0.committedInstType::SimdFloatAlu            0      0.00%     90.94% # Class of committed instruction. (Count)
system.cpu3.commitStats0.committedInstType::SimdFloatCmp            0      0.00%     90.94% # Class of committed instruction. (Count)
system.cpu3.commitStats0.committedInstType::SimdFloatCvt            0      0.00%     90.94% # Class of committed instruction. (Count)
system.cpu3.commitStats0.committedInstType::SimdFloatDiv            0      0.00%     90.94% # Class of committed instruction. (Count)
system.cpu3.commitStats0.committedInstType::SimdFloatMisc            0      0.00%     90.94% # Class of committed instruction. (Count)
system.cpu3.commitStats0.committedInstType::SimdFloatMult            0      0.00%     90.94% # Class of committed instruction. (Count)
system.cpu3.commitStats0.committedInstType::SimdFloatMultAcc            0      0.00%     90.94% # Class of committed instruction. (Count)
system.cpu3.commitStats0.committedInstType::SimdFloatMatMultAcc            0      0.00%     90.94% # Class of committed instruction. (Count)
system.cpu3.commitStats0.committedInstType::SimdFloatSqrt            0      0.00%     90.94% # Class of committed instruction. (Count)
system.cpu3.commitStats0.committedInstType::SimdReduceAdd            0      0.00%     90.94% # Class of committed instruction. (Count)
system.cpu3.commitStats0.committedInstType::SimdReduceAlu            0      0.00%     90.94% # Class of committed instruction. (Count)
system.cpu3.commitStats0.committedInstType::SimdReduceCmp            0      0.00%     90.94% # Class of committed instruction. (Count)
system.cpu3.commitStats0.committedInstType::SimdFloatReduceAdd            0      0.00%     90.94% # Class of committed instruction. (Count)
system.cpu3.commitStats0.committedInstType::SimdFloatReduceCmp            0      0.00%     90.94% # Class of committed instruction. (Count)
system.cpu3.commitStats0.committedInstType::SimdAes            0      0.00%     90.94% # Class of committed instruction. (Count)
system.cpu3.commitStats0.committedInstType::SimdAesMix            0      0.00%     90.94% # Class of committed instruction. (Count)
system.cpu3.commitStats0.committedInstType::SimdSha1Hash            0      0.00%     90.94% # Class of committed instruction. (Count)
system.cpu3.commitStats0.committedInstType::SimdSha1Hash2            0      0.00%     90.94% # Class of committed instruction. (Count)
system.cpu3.commitStats0.committedInstType::SimdSha256Hash            0      0.00%     90.94% # Class of committed instruction. (Count)
system.cpu3.commitStats0.committedInstType::SimdSha256Hash2            0      0.00%     90.94% # Class of committed instruction. (Count)
system.cpu3.commitStats0.committedInstType::SimdShaSigma2            0      0.00%     90.94% # Class of committed instruction. (Count)
system.cpu3.commitStats0.committedInstType::SimdShaSigma3            0      0.00%     90.94% # Class of committed instruction. (Count)
system.cpu3.commitStats0.committedInstType::SimdPredAlu            0      0.00%     90.94% # Class of committed instruction. (Count)
system.cpu3.commitStats0.committedInstType::Matrix            0      0.00%     90.94% # Class of committed instruction. (Count)
system.cpu3.commitStats0.committedInstType::MatrixMov            0      0.00%     90.94% # Class of committed instruction. (Count)
system.cpu3.commitStats0.committedInstType::MatrixOP            0      0.00%     90.94% # Class of committed instruction. (Count)
system.cpu3.commitStats0.committedInstType::MemRead        13449      4.79%     95.72% # Class of committed instruction. (Count)
system.cpu3.commitStats0.committedInstType::MemWrite        11372      4.05%     99.77% # Class of committed instruction. (Count)
system.cpu3.commitStats0.committedInstType::FloatMemRead          121      0.04%     99.81% # Class of committed instruction. (Count)
system.cpu3.commitStats0.committedInstType::FloatMemWrite          523      0.19%    100.00% # Class of committed instruction. (Count)
system.cpu3.commitStats0.committedInstType::IprAccess            0      0.00%    100.00% # Class of committed instruction. (Count)
system.cpu3.commitStats0.committedInstType::InstPrefetch            0      0.00%    100.00% # Class of committed instruction. (Count)
system.cpu3.commitStats0.committedInstType::SimdUnitStrideLoad            0      0.00%    100.00% # Class of committed instruction. (Count)
system.cpu3.commitStats0.committedInstType::SimdUnitStrideStore            0      0.00%    100.00% # Class of committed instruction. (Count)
system.cpu3.commitStats0.committedInstType::SimdUnitStrideMaskLoad            0      0.00%    100.00% # Class of committed instruction. (Count)
system.cpu3.commitStats0.committedInstType::SimdUnitStrideMaskStore            0      0.00%    100.00% # Class of committed instruction. (Count)
system.cpu3.commitStats0.committedInstType::SimdStridedLoad            0      0.00%    100.00% # Class of committed instruction. (Count)
system.cpu3.commitStats0.committedInstType::SimdStridedStore            0      0.00%    100.00% # Class of committed instruction. (Count)
system.cpu3.commitStats0.committedInstType::SimdIndexedLoad            0      0.00%    100.00% # Class of committed instruction. (Count)
system.cpu3.commitStats0.committedInstType::SimdIndexedStore            0      0.00%    100.00% # Class of committed instruction. (Count)
system.cpu3.commitStats0.committedInstType::SimdWholeRegisterLoad            0      0.00%    100.00% # Class of committed instruction. (Count)
system.cpu3.commitStats0.committedInstType::SimdWholeRegisterStore            0      0.00%    100.00% # Class of committed instruction. (Count)
system.cpu3.commitStats0.committedInstType::SimdUnitStrideFaultOnlyFirstLoad            0      0.00%    100.00% # Class of committed instruction. (Count)
system.cpu3.commitStats0.committedInstType::SimdUnitStrideSegmentedLoad            0      0.00%    100.00% # Class of committed instruction. (Count)
system.cpu3.commitStats0.committedInstType::SimdUnitStrideSegmentedStore            0      0.00%    100.00% # Class of committed instruction. (Count)
system.cpu3.commitStats0.committedInstType::SimdUnitStrideSegmentedFaultOnlyFirstLoad            0      0.00%    100.00% # Class of committed instruction. (Count)
system.cpu3.commitStats0.committedInstType::SimdStrideSegmentedLoad            0      0.00%    100.00% # Class of committed instruction. (Count)
system.cpu3.commitStats0.committedInstType::SimdStrideSegmentedStore            0      0.00%    100.00% # Class of committed instruction. (Count)
system.cpu3.commitStats0.committedInstType::SimdExt            0      0.00%    100.00% # Class of committed instruction. (Count)
system.cpu3.commitStats0.committedInstType::SimdFloatExt            0      0.00%    100.00% # Class of committed instruction. (Count)
system.cpu3.commitStats0.committedInstType::SimdConfig            0      0.00%    100.00% # Class of committed instruction. (Count)
system.cpu3.commitStats0.committedInstType::total       280960                       # Class of committed instruction. (Count)
system.cpu3.commitStats0.committedControl::IsControl        53740                       # Class of control type instructions committed (Count)
system.cpu3.commitStats0.committedControl::IsDirectControl        53492                       # Class of control type instructions committed (Count)
system.cpu3.commitStats0.committedControl::IsIndirectControl          248                       # Class of control type instructions committed (Count)
system.cpu3.commitStats0.committedControl::IsCondControl        43204                       # Class of control type instructions committed (Count)
system.cpu3.commitStats0.committedControl::IsUncondControl        10536                       # Class of control type instructions committed (Count)
system.cpu3.commitStats0.committedControl::IsCall          180                       # Class of control type instructions committed (Count)
system.cpu3.commitStats0.committedControl::IsReturn          175                       # Class of control type instructions committed (Count)
system.cpu3.exec_context.thread_0.numMatAluAccesses            0                       # Number of matrix alu accesses (Count)
system.cpu3.exec_context.thread_0.numCallsReturns          355                       # Number of times a function call or return occured (Count)
system.cpu3.exec_context.thread_0.numMatInsts            0                       # Number of matrix instructions (Count)
system.cpu3.exec_context.thread_0.numIdleCycles   297.939447                       # Number of idle cycles (Cycle)
system.cpu3.exec_context.thread_0.numBusyCycles 1419076.060553                       # Number of busy cycles (Cycle)
system.cpu3.exec_context.thread_0.notIdleFraction     0.999790                       # Percentage of non-idle cycles (Ratio)
system.cpu3.exec_context.thread_0.idleFraction     0.000210                       # Percentage of idle cycles (Ratio)
system.cpu3.executeStats0.numInsts                  0                       # Number of executed instructions (Count)
system.cpu3.executeStats0.numNop                    0                       # Number of nop insts executed (Count)
system.cpu3.executeStats0.numBranches               0                       # Number of branches executed (Count)
system.cpu3.executeStats0.numLoadInsts              0                       # Number of load instructions executed (Count)
system.cpu3.executeStats0.numStoreInsts         25465                       # Number of stores executed (Count)
system.cpu3.executeStats0.instRate                  0                       # Inst execution rate ((Count/Cycle))
system.cpu3.executeStats0.numFpAluAccesses         1354                       # Number of float alu accesses (Count)
system.cpu3.executeStats0.numFpRegReads          1462                       # Number of times the floating registers were read (Count)
system.cpu3.executeStats0.numFpRegWrites          785                       # Number of times the floating registers were written (Count)
system.cpu3.executeStats0.numIntAluAccesses       280100                       # Number of integer alu accesses (Count)
system.cpu3.executeStats0.numIntRegReads       288961                       # Number of times the integer registers were read (Count)
system.cpu3.executeStats0.numIntRegWrites       171292                       # Number of times the integer registers were written (Count)
system.cpu3.executeStats0.numMemRefs            25465                       # Number of memory refs (Count)
system.cpu3.executeStats0.numMiscRegReads       133160                       # Number of times the Misc registers were read (Count)
system.cpu3.executeStats0.numVecAluAccesses            0                       # Number of vector alu accesses (Count)
system.cpu3.executeStats0.numDiscardedOps            0                       # Number of ops (including micro ops) which were discarded before commit (Count)
system.cpu3.fetchStats0.numInsts               145046                       # Number of instructions fetched (thread level) (Count)
system.cpu3.fetchStats0.numOps                 280960                       # Number of ops (including micro ops) fetched (thread level) (Count)
system.cpu3.fetchStats0.fetchRate            0.102190                       # Number of inst fetches per cycle ((Count/Cycle))
system.cpu3.fetchStats0.numBranches             53740                       # Number of branches fetched (Count)
system.cpu3.fetchStats0.branchRate           0.037862                       # Number of branch fetches per cycle (Ratio)
system.cpu3.fetchStats0.numFetchSuspends            0                       # Number of times Execute suspended instruction fetching (Count)
system.cpu3.interrupts.clk_domain.clock          8000                       # Clock period in ticks (Tick)
system.cpu3.mmu.dtb.rdAccesses                  13574                       # TLB accesses on read requests (Count)
system.cpu3.mmu.dtb.wrAccesses                  11895                       # TLB accesses on write requests (Count)
system.cpu3.mmu.dtb.rdMisses                       17                       # TLB misses on read requests (Count)
system.cpu3.mmu.dtb.wrMisses                        9                       # TLB misses on write requests (Count)
system.cpu3.mmu.dtb.walker.power_state.pwrStateResidencyTicks::UNDEFINED    709836000                       # Cumulative time (in ticks) in various power states (Tick)
system.cpu3.mmu.itb.rdAccesses                      0                       # TLB accesses on read requests (Count)
system.cpu3.mmu.itb.wrAccesses                 210046                       # TLB accesses on write requests (Count)
system.cpu3.mmu.itb.rdMisses                        0                       # TLB misses on read requests (Count)
system.cpu3.mmu.itb.wrMisses                       46                       # TLB misses on write requests (Count)
system.cpu3.mmu.itb.walker.power_state.pwrStateResidencyTicks::UNDEFINED    709836000                       # Cumulative time (in ticks) in various power states (Tick)
system.cpu3.power_state.pwrStateResidencyTicks::ON    709836000                       # Cumulative time (in ticks) in various power states (Tick)
system.cpu3.thread_0.numInsts                       0                       # Number of Instructions committed (Count)
system.cpu3.thread_0.numOps                         0                       # Number of Ops committed (Count)
system.cpu3.thread_0.numMemRefs                     0                       # Number of Memory References (Count)
system.cpu3.workload.numSyscalls                   15                       # Number of system calls (Count)
system.cpu_clk_domain.clock                       500                       # Clock period in ticks (Tick)
system.cpu_voltage_domain.voltage                   1                       # Voltage in Volts (Volt)
system.mem_ctrls.avgPriority_ruby.dir_cntrl0::samples      3167.00                       # Average QoS priority value for accepted requests (Count)
system.mem_ctrls.priorityMinLatency      0.000000018750                       # per QoS priority minimum request to response latency (Second)
system.mem_ctrls.priorityMaxLatency      0.000000590500                       # per QoS priority maximum request to response latency (Second)
system.mem_ctrls.numReadWriteTurnArounds            0                       # Number of turnarounds from READ to WRITE (Count)
system.mem_ctrls.numWriteReadTurnArounds            0                       # Number of turnarounds from WRITE to READ (Count)
system.mem_ctrls.numStayReadState                6325                       # Number of times bus staying in READ state (Count)
[...]
system.ruby.network.routers6.port_buffers1.m_stall_time      5001500                       # Total number of ticks messages were stalled in this buffer (Tick)
system.ruby.network.routers6.port_buffers1.m_avg_stall_time    98.253575                       # Average stall ticks per message ((Tick/Count))
system.ruby.network.routers6.port_buffers10.m_msg_count        17471                       # Number of messages passed the buffer (Count)
system.ruby.network.routers6.port_buffers10.m_buf_msgs     0.012311                       # Average number of messages in buffer ((Count/Tick))
system.ruby.network.routers6.port_buffers10.m_stall_time         3000                       # Total number of ticks messages were stalled in this buffer (Tick)
system.ruby.network.routers6.port_buffers10.m_avg_stall_time     0.171713                       # Average stall ticks per message ((Tick/Count))
system.ruby.network.routers6.port_buffers11.m_msg_count        20014                       # Number of messages passed the buffer (Count)
system.ruby.network.routers6.port_buffers11.m_buf_msgs     0.014098                       # Average number of messages in buffer ((Count/Tick))
system.ruby.network.routers6.port_buffers11.m_stall_time          500                       # Total number of ticks messages were stalled in this buffer (Tick)
system.ruby.network.routers6.port_buffers11.m_avg_stall_time     0.024983                       # Average stall ticks per message ((Tick/Count))
system.ruby.network.routers6.port_buffers12.m_msg_count        73279                       # Number of messages passed the buffer (Count)
system.ruby.network.routers6.port_buffers12.m_buf_msgs     0.051958                       # Average number of messages in buffer ((Count/Tick))
system.ruby.network.routers6.port_buffers12.m_stall_time       242000                       # Total number of ticks messages were stalled in this buffer (Tick)
system.ruby.network.routers6.port_buffers12.m_avg_stall_time     3.302447                       # Average stall ticks per message ((Tick/Count))
system.ruby.network.routers6.port_buffers13.m_msg_count        13186                       # Number of messages passed the buffer (Count)
system.ruby.network.routers6.port_buffers13.m_buf_msgs     0.009288                       # Average number of messages in buffer ((Count/Tick))
system.ruby.network.routers6.port_buffers14.m_msg_count        51204                       # Number of messages passed the buffer (Count)
system.ruby.network.routers6.port_buffers14.m_buf_msgs     0.036123                       # Average number of messages in buffer ((Count/Tick))
system.ruby.network.routers6.port_buffers14.m_stall_time        39500                       # Total number of ticks messages were stalled in this buffer (Tick)
system.ruby.network.routers6.port_buffers14.m_avg_stall_time     0.771424                       # Average stall ticks per message ((Tick/Count))
system.ruby.network.routers6.port_buffers15.m_msg_count         3167                       # Number of messages passed the buffer (Count)
system.ruby.network.routers6.port_buffers15.m_buf_msgs     0.002231                       # Average number of messages in buffer ((Count/Tick))
system.ruby.network.routers6.port_buffers2.m_msg_count        10022                       # Number of messages passed the buffer (Count)
system.ruby.network.routers6.port_buffers2.m_buf_msgs     0.007059                       # Average number of messages in buffer ((Count/Tick))
system.ruby.network.routers6.port_buffers4.m_msg_count        17473                       # Number of messages passed the buffer (Count)
system.ruby.network.routers6.port_buffers4.m_buf_msgs     0.012308                       # Average number of messages in buffer ((Count/Tick))
system.ruby.network.routers6.port_buffers4.m_stall_time          500                       # Total number of ticks messages were stalled in this buffer (Tick)
system.ruby.network.routers6.port_buffers4.m_avg_stall_time     0.028616                       # Average stall ticks per message ((Tick/Count))
system.ruby.network.routers6.port_buffers5.m_msg_count        20014                       # Number of messages passed the buffer (Count)
system.ruby.network.routers6.port_buffers5.m_buf_msgs     0.014098                       # Average number of messages in buffer ((Count/Tick))
system.ruby.network.routers6.port_buffers7.m_msg_count        17472                       # Number of messages passed the buffer (Count)
system.ruby.network.routers6.port_buffers7.m_buf_msgs     0.012308                       # Average number of messages in buffer ((Count/Tick))
system.ruby.network.routers6.port_buffers7.m_stall_time          500                       # Total number of ticks messages were stalled in this buffer (Tick)
system.ruby.network.routers6.port_buffers7.m_avg_stall_time     0.028617                       # Average stall ticks per message ((Tick/Count))
system.ruby.network.routers6.port_buffers8.m_msg_count        20017                       # Number of messages passed the buffer (Count)
system.ruby.network.routers6.port_buffers8.m_buf_msgs     0.014100                       # Average number of messages in buffer ((Count/Tick))
system.ruby.network.routers6.power_state.pwrStateResidencyTicks::UNDEFINED    709836000                       # Cumulative time (in ticks) in various power states (Tick)
system.ruby.network.routers6.throttle00.acc_link_utilization        73983                       # Accumulated link utilization system.ruby.network.int_links06 (Count)
system.ruby.network.routers6.throttle00.link_utilization     5.211274                       # Average link utilization (Ratio)
system.ruby.network.routers6.throttle00.total_msg_count        60926                       # Total number of messages forwarded by this switch (Count)
system.ruby.network.routers6.throttle00.total_msg_bytes      1183728                       # Total number of bytes forwarded by this switch (Byte)
system.ruby.network.routers6.throttle00.total_data_msg_bytes       696320                       # Total number of data bytes forwarded by this switch (Byte)
system.ruby.network.routers6.throttle00.total_msg_wait_time      5001500                       # Total time spend forwarding messages (Tick)
system.ruby.network.routers6.throttle00.total_stall_cy            0                       # Total time spent blocked on any output link (Cycle)
system.ruby.network.routers6.throttle00.total_bw_sat_cy        53523                       # Total time bandwidth was saturated on any output link (Cycle)
system.ruby.network.routers6.throttle00.avg_msg_wait_time    82.091390                       # Average time a message took to be forwarded (Ratio)
system.ruby.network.routers6.throttle00.avg_bandwidth         1.55                       # Average bandwidth (GB/s) (Ratio)
system.ruby.network.routers6.throttle00.avg_useful_bandwidth         0.91                       # Average useful (only data) bandwidth (GB/s) (Ratio)
system.ruby.network.routers6.throttle00.msg_count.Request_Control::2        10022                       (Unspecified)
system.ruby.network.routers6.throttle00.msg_bytes.Request_Control::2        80176                       (Unspecified)
system.ruby.network.routers6.throttle00.msg_count.Response_Data::1        10880                       (Unspecified)
system.ruby.network.routers6.throttle00.msg_bytes.Response_Data::1       783360                       (Unspecified)
system.ruby.network.routers6.throttle00.msg_count.Response_Control::1        40024                       (Unspecified)
system.ruby.network.routers6.throttle00.msg_bytes.Response_Control::1       320192                       (Unspecified)
system.ruby.network.routers6.throttle01.acc_link_utilization 88583.500000                       # Accumulated link utilization system.ruby.network.int_links07 (Count)
system.ruby.network.routers6.throttle01.link_utilization     6.239716                       # Average link utilization (Ratio)
system.ruby.network.routers6.throttle01.total_msg_count        37487                       # Total number of messages forwarded by this switch (Count)
system.ruby.network.routers6.throttle01.total_msg_bytes      1417336                       # Total number of bytes forwarded by this switch (Byte)
system.ruby.network.routers6.throttle01.total_data_msg_bytes      1117440                       # Total number of data bytes forwarded by this switch (Byte)
system.ruby.network.routers6.throttle01.total_msg_wait_time          500                       # Total time spend forwarding messages (Tick)
system.ruby.network.routers6.throttle01.total_stall_cy            0                       # Total time spent blocked on any output link (Cycle)
system.ruby.network.routers6.throttle01.total_bw_sat_cy        69841                       # Total time bandwidth was saturated on any output link (Cycle)
system.ruby.network.routers6.throttle01.avg_msg_wait_time     0.013338                       # Average time a message took to be forwarded (Ratio)
system.ruby.network.routers6.throttle01.avg_bandwidth         1.86                       # Average bandwidth (GB/s) (Ratio)
system.ruby.network.routers6.throttle01.avg_useful_bandwidth         1.47                       # Average useful (only data) bandwidth (GB/s) (Ratio)
system.ruby.network.routers6.throttle01.msg_count.Request_Control::2        20014                       (Unspecified)
system.ruby.network.routers6.throttle01.msg_bytes.Request_Control::2       160112                       (Unspecified)
system.ruby.network.routers6.throttle01.msg_count.Response_Data::1        17460                       (Unspecified)
system.ruby.network.routers6.throttle01.msg_bytes.Response_Data::1      1257120                       (Unspecified)
system.ruby.network.routers6.throttle01.msg_count.Response_Control::1           13                       (Unspecified)
system.ruby.network.routers6.throttle01.msg_bytes.Response_Control::1          104                       (Unspecified)
system.ruby.network.routers6.throttle02.acc_link_utilization 88600.500000                       # Accumulated link utilization system.ruby.network.int_links08 (Count)
system.ruby.network.routers6.throttle02.link_utilization     6.240913                       # Average link utilization (Ratio)
system.ruby.network.routers6.throttle02.total_msg_count        37489                       # Total number of messages forwarded by this switch (Count)
system.ruby.network.routers6.throttle02.total_msg_bytes      1417608                       # Total number of bytes forwarded by this switch (Byte)
system.ruby.network.routers6.throttle02.total_data_msg_bytes      1117696                       # Total number of data bytes forwarded by this switch (Byte)
system.ruby.network.routers6.throttle02.total_msg_wait_time          500                       # Total time spend forwarding messages (Tick)
system.ruby.network.routers6.throttle02.total_stall_cy            0                       # Total time spent blocked on any output link (Cycle)
system.ruby.network.routers6.throttle02.total_bw_sat_cy        69857                       # Total time bandwidth was saturated on any output link (Cycle)
system.ruby.network.routers6.throttle02.avg_msg_wait_time     0.013337                       # Average time a message took to be forwarded (Ratio)
system.ruby.network.routers6.throttle02.avg_bandwidth         1.86                       # Average bandwidth (GB/s) (Ratio)
system.ruby.network.routers6.throttle02.avg_useful_bandwidth         1.47                       # Average useful (only data) bandwidth (GB/s) (Ratio)
system.ruby.network.routers6.throttle02.msg_count.Request_Control::2        20017                       (Unspecified)
system.ruby.network.routers6.throttle02.msg_bytes.Request_Control::2       160136                       (Unspecified)
system.ruby.network.routers6.throttle02.msg_count.Response_Data::1        17464                       (Unspecified)
system.ruby.network.routers6.throttle02.msg_bytes.Response_Data::1      1257408                       (Unspecified)
system.ruby.network.routers6.throttle02.msg_count.Response_Control::1            8                       (Unspecified)
system.ruby.network.routers6.throttle02.msg_bytes.Response_Control::1           64                       (Unspecified)
system.ruby.network.routers6.throttle03.acc_link_utilization 88590.500000                       # Accumulated link utilization system.ruby.network.int_links09 (Count)
system.ruby.network.routers6.throttle03.link_utilization     6.240209                       # Average link utilization (Ratio)
system.ruby.network.routers6.throttle03.total_msg_count        37485                       # Total number of messages forwarded by this switch (Count)
system.ruby.network.routers6.throttle03.total_msg_bytes      1417448                       # Total number of bytes forwarded by this switch (Byte)
system.ruby.network.routers6.throttle03.total_data_msg_bytes      1117568                       # Total number of data bytes forwarded by this switch (Byte)
system.ruby.network.routers6.throttle03.total_msg_wait_time         3500                       # Total time spend forwarding messages (Tick)
system.ruby.network.routers6.throttle03.total_stall_cy            0                       # Total time spent blocked on any output link (Cycle)
system.ruby.network.routers6.throttle03.total_bw_sat_cy        69850                       # Total time bandwidth was saturated on any output link (Cycle)
system.ruby.network.routers6.throttle03.avg_msg_wait_time     0.093371                       # Average time a message took to be forwarded (Ratio)
system.ruby.network.routers6.throttle03.avg_bandwidth         1.86                       # Average bandwidth (GB/s) (Ratio)
system.ruby.network.routers6.throttle03.avg_useful_bandwidth         1.47                       # Average useful (only data) bandwidth (GB/s) (Ratio)
system.ruby.network.routers6.throttle03.msg_count.Request_Control::2        20014                       (Unspecified)
system.ruby.network.routers6.throttle03.msg_bytes.Request_Control::2       160112                       (Unspecified)
system.ruby.network.routers6.throttle03.msg_count.Response_Data::1        17462                       (Unspecified)
system.ruby.network.routers6.throttle03.msg_bytes.Response_Data::1      1257264                       (Unspecified)
system.ruby.network.routers6.throttle03.msg_count.Response_Control::1            9                       (Unspecified)
system.ruby.network.routers6.throttle03.msg_bytes.Response_Control::1           72                       (Unspecified)
system.ruby.network.routers6.throttle04.acc_link_utilization 121582.500000                       # Accumulated link utilization system.ruby.network.int_links10 (Count)
system.ruby.network.routers6.throttle04.link_utilization     8.564126                       # Average link utilization (Ratio)
system.ruby.network.routers6.throttle04.total_msg_count       137669                       # Total number of messages forwarded by this switch (Count)
system.ruby.network.routers6.throttle04.total_msg_bytes      1945320                       # Total number of bytes forwarded by this switch (Byte)
system.ruby.network.routers6.throttle04.total_data_msg_bytes       843968                       # Total number of data bytes forwarded by this switch (Byte)
system.ruby.network.routers6.throttle04.total_msg_wait_time       281500                       # Total time spend forwarding messages (Tick)
system.ruby.network.routers6.throttle04.total_stall_cy            0                       # Total time spent blocked on any output link (Cycle)
system.ruby.network.routers6.throttle04.total_bw_sat_cy        52767                       # Total time bandwidth was saturated on any output link (Cycle)
system.ruby.network.routers6.throttle04.avg_msg_wait_time     2.044760                       # Average time a message took to be forwarded (Ratio)
system.ruby.network.routers6.throttle04.avg_bandwidth         2.55                       # Average bandwidth (GB/s) (Ratio)
system.ruby.network.routers6.throttle04.avg_useful_bandwidth         1.11                       # Average useful (only data) bandwidth (GB/s) (Ratio)
system.ruby.network.routers6.throttle04.msg_count.Control::0        73277                       (Unspecified)
system.ruby.network.routers6.throttle04.msg_bytes.Control::0       586216                       (Unspecified)
system.ruby.network.routers6.throttle04.msg_count.Response_Data::1        13186                       (Unspecified)
system.ruby.network.routers6.throttle04.msg_bytes.Response_Data::1       949392                       (Unspecified)
system.ruby.network.routers6.throttle04.msg_count.Response_Control::2        51204                       (Unspecified)
system.ruby.network.routers6.throttle04.msg_bytes.Response_Control::2       409632                       (Unspecified)
system.ruby.network.routers6.throttle04.msg_count.Writeback_Data::0            1                       (Unspecified)
system.ruby.network.routers6.throttle04.msg_bytes.Writeback_Data::0           72                       (Unspecified)
system.ruby.network.routers6.throttle04.msg_count.Writeback_Control::0            1                       (Unspecified)
system.ruby.network.routers6.throttle04.msg_bytes.Writeback_Control::0            8                       (Unspecified)
system.ruby.network.routers6.throttle05.acc_link_utilization  1583.500000                       # Accumulated link utilization system.ruby.network.int_links11 (Count)
system.ruby.network.routers6.throttle05.link_utilization     0.111540                       # Average link utilization (Ratio)
system.ruby.network.routers6.throttle05.total_msg_count         3167                       # Total number of messages forwarded by this switch (Count)
system.ruby.network.routers6.throttle05.total_msg_bytes        25336                       # Total number of bytes forwarded by this switch (Byte)
system.ruby.network.routers6.throttle05.total_data_msg_bytes            0                       # Total number of data bytes forwarded by this switch (Byte)
system.ruby.network.routers6.throttle05.total_msg_wait_time            0                       # Total time spend forwarding messages (Tick)
system.ruby.network.routers6.throttle05.total_stall_cy            0                       # Total time spent blocked on any output link (Cycle)
system.ruby.network.routers6.throttle05.total_bw_sat_cy            0                       # Total time bandwidth was saturated on any output link (Cycle)
system.ruby.network.routers6.throttle05.avg_msg_wait_time            0                       # Average time a message took to be forwarded (Ratio)
system.ruby.network.routers6.throttle05.avg_bandwidth         0.03                       # Average bandwidth (GB/s) (Ratio)
system.ruby.network.routers6.throttle05.avg_useful_bandwidth         0.00                       # Average useful (only data) bandwidth (GB/s) (Ratio)
system.ruby.network.routers6.throttle05.msg_count.Control::0         3167                       (Unspecified)
system.ruby.network.routers6.throttle05.msg_bytes.Control::0        25336                       (Unspecified)
system.ruby.power_state.pwrStateResidencyTicks::UNDEFINED    709836000                       # Cumulative time (in ticks) in various power states (Tick)
system.sys_port_proxy.power_state.pwrStateResidencyTicks::UNDEFINED    709836000                       # Cumulative time (in ticks) in various power states (Tick)
system.voltage_domain.voltage                       1                       # Voltage in Volts (Volt)
system.workload.inst.arm                            0                       # number of arm instructions executed (Count)
system.workload.inst.quiesce                        0                       # number of quiesce instructions executed (Count)

---------- End Simulation Statistics   ----------
