
---------- Begin Simulation Statistics ----------
simSeconds                                   0.000281                       # Number of seconds simulated (Second)
simTicks                                    280638000                       # Number of ticks simulated (Tick)
finalTick                                   280638000                       # Number of ticks from beginning of simulation (restored from checkpoints and never reset) (Tick)
simFreq                                  1000000000000                       # The number of ticks per simulated second ((Tick/Second))
hostSeconds                                      0.23                       # Real time elapsed on the host (Second)
hostTickRate                               1238850312                       # The number of ticks simulated per host second (ticks/s) ((Tick/Second))
hostMemory                                    2597948                       # Number of bytes of host memory used (Byte)
simInsts                                       141446                       # Number of instructions simulated (Count)
simOps                                         271653                       # Number of ops (including micro ops) simulated (Count)
hostInstRate                                   624061                       # Simulator instruction rate (inst/s) ((Count/Second))
hostOpRate                                    1198515                       # Simulator op (including micro ops) rate (op/s) ((Count/Second))
system.clk_domain.clock                          1000                       # Clock period in ticks (Tick)
system.cpu.numCycles                           561276                       # Number of cpu cycles simulated (Cycle)
system.cpu.cpi                               3.967652                       # CPI: cycles per instruction (core level) ((Cycle/Count))
system.cpu.ipc                               0.252038                       # IPC: instructions per cycle (core level) ((Count/Cycle))
system.cpu.numWorkItemsStarted                      0                       # Number of work items this cpu started (Count)
system.cpu.numWorkItemsCompleted                    0                       # Number of work items this cpu completed (Count)
system.cpu.commitStats0.numInsts               141463                       # Number of instructions committed (thread level) (Count)
system.cpu.commitStats0.numOps                 271671                       # Number of ops (including micro ops) committed (thread level) (Count)
system.cpu.commitStats0.numInstsNotNOP              0                       # Number of instructions committed excluding NOPs or prefetches (Count)
system.cpu.commitStats0.numOpsNotNOP                0                       # Number of Ops (including micro ops) Simulated (Count)
system.cpu.commitStats0.cpi                  3.967652                       # CPI: cycles per instruction (thread level) ((Cycle/Count))
system.cpu.commitStats0.ipc                  0.252038                       # IPC: instructions per cycle (thread level) ((Count/Cycle))
system.cpu.commitStats0.numMemRefs                  0                       # Number of memory references committed (Count)
system.cpu.commitStats0.numFpInsts               1354                       # Number of float instructions (Count)
system.cpu.commitStats0.numIntInsts            270812                       # Number of integer instructions (Count)
system.cpu.commitStats0.numLoadInsts            11885                       # Number of load instructions (Count)
system.cpu.commitStats0.numStoreInsts           12554                       # Number of store instructions (Count)
system.cpu.commitStats0.numVecInsts                 0                       # Number of vector instructions (Count)
system.cpu.commitStats0.committedInstType::No_OpClass          207      0.08%      0.08% # Class of committed instruction. (Count)
system.cpu.commitStats0.committedInstType::IntAlu       246439     90.71%     90.79% # Class of committed instruction. (Count)
system.cpu.commitStats0.committedInstType::IntMult           12      0.00%     90.79% # Class of committed instruction. (Count)
system.cpu.commitStats0.committedInstType::IntDiv           21      0.01%     90.80% # Class of committed instruction. (Count)
system.cpu.commitStats0.committedInstType::FloatAdd          172      0.06%     90.86% # Class of committed instruction. (Count)
system.cpu.commitStats0.committedInstType::FloatCmp            0      0.00%     90.86% # Class of committed instruction. (Count)
system.cpu.commitStats0.committedInstType::FloatCvt            0      0.00%     90.86% # Class of committed instruction. (Count)
system.cpu.commitStats0.committedInstType::FloatMult            0      0.00%     90.86% # Class of committed instruction. (Count)
system.cpu.commitStats0.committedInstType::FloatMultAcc            0      0.00%     90.86% # Class of committed instruction. (Count)
system.cpu.commitStats0.committedInstType::FloatDiv            0      0.00%     90.86% # Class of committed instruction. (Count)
system.cpu.commitStats0.committedInstType::FloatMisc            0      0.00%     90.86% # Class of committed instruction. (Count)
system.cpu.commitStats0.committedInstType::FloatSqrt            0      0.00%     90.86% # Class of committed instruction. (Count)
system.cpu.commitStats0.committedInstType::SimdAdd            8      0.00%     90.87% # Class of committed instruction. (Count)
system.cpu.commitStats0.committedInstType::SimdAddAcc            0      0.00%     90.87% # Class of committed instruction. (Count)
system.cpu.commitStats0.committedInstType::SimdAlu           96      0.04%     90.90% # Class of committed instruction. (Count)
system.cpu.commitStats0.committedInstType::SimdCmp            0      0.00%     90.90% # Class of committed instruction. (Count)
system.cpu.commitStats0.committedInstType::SimdCvt           48      0.02%     90.92% # Class of committed instruction. (Count)
system.cpu.commitStats0.committedInstType::SimdMisc          229      0.08%     91.00% # Class of committed instruction. (Count)
system.cpu.commitStats0.committedInstType::SimdMult            0      0.00%     91.00% # Class of committed instruction. (Count)
system.cpu.commitStats0.committedInstType::SimdMultAcc            0      0.00%     91.00% # Class of committed instruction. (Count)
system.cpu.commitStats0.committedInstType::SimdMatMultAcc            0      0.00%     91.00% # Class of committed instruction. (Count)
system.cpu.commitStats0.committedInstType::SimdShift            0      0.00%     91.00% # Class of committed instruction. (Count)
system.cpu.commitStats0.committedInstType::SimdShiftAcc            0      0.00%     91.00% # Class of committed instruction. (Count)
system.cpu.commitStats0.committedInstType::SimdDiv            0      0.00%     91.00% # Class of committed instruction. (Count)
system.cpu.commitStats0.committedInstType::SimdSqrt            0      0.00%     91.00% # Class of committed instruction. (Count)
system.cpu.commitStats0.committedInstType::SimdFloatAdd            0      0.00%     91.00% # Class of committed instruction. (Count)
system.cpu.commitStats0.committedInstType::SimdFloatAlu            0      0.00%     91.00% # Class of committed instruction. (Count)
system.cpu.commitStats0.committedInstType::SimdFloatCmp            0      0.00%     91.00% # Class of committed instruction. (Count)
system.cpu.commitStats0.committedInstType::SimdFloatCvt            0      0.00%     91.00% # Class of committed instruction. (Count)
system.cpu.commitStats0.committedInstType::SimdFloatDiv            0      0.00%     91.00% # Class of committed instruction. (Count)
system.cpu.commitStats0.committedInstType::SimdFloatMisc            0      0.00%     91.00% # Class of committed instruction. (Count)
system.cpu.commitStats0.committedInstType::SimdFloatMult            0      0.00%     91.00% # Class of committed instruction. (Count)
system.cpu.commitStats0.committedInstType::SimdFloatMultAcc            0      0.00%     91.00% # Class of committed instruction. (Count)
system.cpu.commitStats0.committedInstType::SimdFloatMatMultAcc            0      0.00%     91.00% # Class of committed instruction. (Count)
system.cpu.commitStats0.committedInstType::SimdFloatSqrt            0      0.00%     91.00% # Class of committed instruction. (Count)
system.cpu.commitStats0.committedInstType::SimdReduceAdd            0      0.00%     91.00% # Class of committed instruction. (Count)
system.cpu.commitStats0.committedInstType::SimdReduceAlu            0      0.00%     91.00% # Class of committed instruction. (Count)
system.cpu.commitStats0.committedInstType::SimdReduceCmp            0      0.00%     91.00% # Class of committed instruction. (Count)
system.cpu.commitStats0.committedInstType::SimdFloatReduceAdd            0      0.00%     91.00% # Class of committed instruction. (Count)
system.cpu.commitStats0.committedInstType::SimdFloatReduceCmp            0      0.00%     91.00% # Class of committed instruction. (Count)
system.cpu.commitStats0.committedInstType::SimdAes            0      0.00%     91.00% # Class of committed instruction. (Count)
system.cpu.commitStats0.committedInstType::SimdAesMix            0      0.00%     91.00% # Class of committed instruction. (Count)
system.cpu.commitStats0.committedInstType::SimdSha1Hash            0      0.00%     91.00% # Class of committed instruction. (Count)
system.cpu.commitStats0.committedInstType::SimdSha1Hash2            0      0.00%     91.00% # Class of committed instruction. (Count)
system.cpu.commitStats0.committedInstType::SimdSha256Hash            0      0.00%     91.00% # Class of committed instruction. (Count)
system.cpu.commitStats0.committedInstType::SimdSha256Hash2            0      0.00%     91.00% # Class of committed instruction. (Count)
system.cpu.commitStats0.committedInstType::SimdShaSigma2            0      0.00%     91.00% # Class of committed instruction. (Count)
system.cpu.commitStats0.committedInstType::SimdShaSigma3            0      0.00%     91.00% # Class of committed instruction. (Count)
system.cpu.commitStats0.committedInstType::SimdPredAlu            0      0.00%     91.00% # Class of committed instruction. (Count)
system.cpu.commitStats0.committedInstType::Matrix            0      0.00%     91.00% # Class of committed instruction. (Count)
system.cpu.commitStats0.committedInstType::MatrixMov            0      0.00%     91.00% # Class of committed instruction. (Count)
system.cpu.commitStats0.committedInstType::MatrixOP            0      0.00%     91.00% # Class of committed instruction. (Count)
system.cpu.commitStats0.committedInstType::MemRead        11764      4.33%     95.33% # Class of committed instruction. (Count)
system.cpu.commitStats0.committedInstType::MemWrite        12031      4.43%     99.76% # Class of committed instruction. (Count)
system.cpu.commitStats0.committedInstType::FloatMemRead          121      0.04%     99.81% # Class of committed instruction. (Count)
system.cpu.commitStats0.committedInstType::FloatMemWrite          523      0.19%    100.00% # Class of committed instruction. (Count)
system.cpu.commitStats0.committedInstType::IprAccess            0      0.00%    100.00% # Class of committed instruction. (Count)
system.cpu.commitStats0.committedInstType::InstPrefetch            0      0.00%    100.00% # Class of committed instruction. (Count)
system.cpu.commitStats0.committedInstType::SimdUnitStrideLoad            0      0.00%    100.00% # Class of committed instruction. (Count)
system.cpu.commitStats0.committedInstType::SimdUnitStrideStore            0      0.00%    100.00% # Class of committed instruction. (Count)
system.cpu.commitStats0.committedInstType::SimdUnitStrideMaskLoad            0      0.00%    100.00% # Class of committed instruction. (Count)
system.cpu.commitStats0.committedInstType::SimdUnitStrideMaskStore            0      0.00%    100.00% # Class of committed instruction. (Count)
system.cpu.commitStats0.committedInstType::SimdStridedLoad            0      0.00%    100.00% # Class of committed instruction. (Count)
system.cpu.commitStats0.committedInstType::SimdStridedStore            0      0.00%    100.00% # Class of committed instruction. (Count)
system.cpu.commitStats0.committedInstType::SimdIndexedLoad            0      0.00%    100.00% # Class of committed instruction. (Count)
system.cpu.commitStats0.committedInstType::SimdIndexedStore            0      0.00%    100.00% # Class of committed instruction. (Count)
system.cpu.commitStats0.committedInstType::SimdWholeRegisterLoad            0      0.00%    100.00% # Class of committed instruction. (Count)
system.cpu.commitStats0.committedInstType::SimdWholeRegisterStore            0      0.00%    100.00% # Class of committed instruction. (Count)
system.cpu.commitStats0.committedInstType::SimdUnitStrideFaultOnlyFirstLoad            0      0.00%    100.00% # Class of committed instruction. (Count)
system.cpu.commitStats0.committedInstType::SimdUnitStrideSegmentedLoad            0      0.00%    100.00% # Class of committed instruction. (Count)
system.cpu.commitStats0.committedInstType::SimdUnitStrideSegmentedStore            0      0.00%    100.00% # Class of committed instruction. (Count)
system.cpu.commitStats0.committedInstType::SimdUnitStrideSegmentedFaultOnlyFirstLoad            0      0.00%    100.00% # Class of committed instruction. (Count)
system.cpu.commitStats0.committedInstType::SimdStrideSegmentedLoad            0      0.00%    100.00% # Class of committed instruction. (Count)
system.cpu.commitStats0.committedInstType::SimdStrideSegmentedStore            0      0.00%    100.00% # Class of committed instruction. (Count)
system.cpu.commitStats0.committedInstType::SimdExt            0      0.00%    100.00% # Class of committed instruction. (Count)
system.cpu.commitStats0.committedInstType::SimdFloatExt            0      0.00%    100.00% # Class of committed instruction. (Count)
system.cpu.commitStats0.committedInstType::SimdConfig            0      0.00%    100.00% # Class of committed instruction. (Count)
system.cpu.commitStats0.committedInstType::total       271671                       # Class of committed instruction. (Count)
system.cpu.commitStats0.committedControl::IsControl        52132                       # Class of control type instructions committed (Count)
system.cpu.commitStats0.committedControl::IsDirectControl        51884                       # Class of control type instructions committed (Count)
system.cpu.commitStats0.committedControl::IsIndirectControl          248                       # Class of control type instructions committed (Count)
system.cpu.commitStats0.committedControl::IsCondControl        41595                       # Class of control type instructions committed (Count)
system.cpu.commitStats0.committedControl::IsUncondControl        10537                       # Class of control type instructions committed (Count)
system.cpu.commitStats0.committedControl::IsCall          180                       # Class of control type instructions committed (Count)
system.cpu.commitStats0.committedControl::IsReturn          175                       # Class of control type instructions committed (Count)
system.cpu.exec_context.thread_0.numMatAluAccesses            0                       # Number of matrix alu accesses (Count)
system.cpu.exec_context.thread_0.numCallsReturns          355                       # Number of times a function call or return occured (Count)
system.cpu.exec_context.thread_0.numMatInsts            0                       # Number of matrix instructions (Count)
system.cpu.exec_context.thread_0.numIdleCycles     0.002000                       # Number of idle cycles (Cycle)
system.cpu.exec_context.thread_0.numBusyCycles 561275.998000                       # Number of busy cycles (Cycle)
system.cpu.exec_context.thread_0.notIdleFraction     1.000000                       # Percentage of non-idle cycles (Ratio)
system.cpu.exec_context.thread_0.idleFraction     0.000000                       # Percentage of idle cycles (Ratio)
system.cpu.executeStats0.numInsts                   0                       # Number of executed instructions (Count)
system.cpu.executeStats0.numNop                     0                       # Number of nop insts executed (Count)
system.cpu.executeStats0.numBranches                0                       # Number of branches executed (Count)
system.cpu.executeStats0.numLoadInsts               0                       # Number of load instructions executed (Count)
system.cpu.executeStats0.numStoreInsts          24439                       # Number of stores executed (Count)
system.cpu.executeStats0.instRate                   0                       # Inst execution rate ((Count/Cycle))
system.cpu.executeStats0.numFpAluAccesses         1354                       # Number of float alu accesses (Count)
system.cpu.executeStats0.numFpRegReads           1462                       # Number of times the floating registers were read (Count)
system.cpu.executeStats0.numFpRegWrites           785                       # Number of times the floating registers were written (Count)
system.cpu.executeStats0.numIntAluAccesses       270812                       # Number of integer alu accesses (Count)
system.cpu.executeStats0.numIntRegReads        283442                       # Number of times the integer registers were read (Count)
system.cpu.executeStats0.numIntRegWrites       164561                       # Number of times the integer registers were written (Count)
system.cpu.executeStats0.numMemRefs             24439                       # Number of memory refs (Count)
system.cpu.executeStats0.numMiscRegReads       128918                       # Number of times the Misc registers were read (Count)
system.cpu.executeStats0.numVecAluAccesses            0                       # Number of vector alu accesses (Count)
system.cpu.executeStats0.numDiscardedOps            0                       # Number of ops (including micro ops) which were discarded before commit (Count)
system.cpu.fetchStats0.numInsts                141463                       # Number of instructions fetched (thread level) (Count)
system.cpu.fetchStats0.numOps                  271671                       # Number of ops (including micro ops) fetched (thread level) (Count)
system.cpu.fetchStats0.fetchRate             0.252038                       # Number of inst fetches per cycle ((Count/Cycle))
system.cpu.fetchStats0.numBranches              52132                       # Number of branches fetched (Count)
system.cpu.fetchStats0.branchRate            0.092881                       # Number of branch fetches per cycle (Ratio)
system.cpu.fetchStats0.numFetchSuspends             0                       # Number of times Execute suspended instruction fetching (Count)
system.cpu.interrupts.clk_domain.clock           8000                       # Clock period in ticks (Tick)
system.cpu.mmu.dtb.rdAccesses                   11889                       # TLB accesses on read requests (Count)
system.cpu.mmu.dtb.wrAccesses                   12554                       # TLB accesses on write requests (Count)
system.cpu.mmu.dtb.rdMisses                        15                       # TLB misses on read requests (Count)
system.cpu.mmu.dtb.wrMisses                        11                       # TLB misses on write requests (Count)
system.cpu.mmu.dtb.walker.power_state.pwrStateResidencyTicks::UNDEFINED    280638000                       # Cumulative time (in ticks) in various power states (Tick)
system.cpu.mmu.itb.rdAccesses                       0                       # TLB accesses on read requests (Count)
system.cpu.mmu.itb.wrAccesses                  205835                       # TLB accesses on write requests (Count)
system.cpu.mmu.itb.rdMisses                         0                       # TLB misses on read requests (Count)
system.cpu.mmu.itb.wrMisses                        46                       # TLB misses on write requests (Count)
system.cpu.mmu.itb.walker.power_state.pwrStateResidencyTicks::UNDEFINED    280638000                       # Cumulative time (in ticks) in various power states (Tick)
system.cpu.power_state.pwrStateResidencyTicks::ON    280638000                       # Cumulative time (in ticks) in various power states (Tick)
system.cpu.thread_0.numInsts                        0                       # Number of Instructions committed (Count)
system.cpu.thread_0.numOps                          0                       # Number of Ops committed (Count)
system.cpu.thread_0.numMemRefs                      0                       # Number of Memory References (Count)
system.cpu.workload.numSyscalls                    15                       # Number of system calls (Count)
system.cpu_clk_domain.clock                       500                       # Clock period in ticks (Tick)
system.cpu_voltage_domain.voltage                   1                       # Voltage in Volts (Volt)
system.mem_ctrls.avgPriority_ruby.dir_cntrl0::samples      1239.00                       # Average QoS priority value for accepted requests (Count)
system.mem_ctrls.priorityMinLatency      0.000000018750                       # per QoS priority minimum request to response latency (Second)
system.mem_ctrls.priorityMaxLatency      0.000430021500                       # per QoS priority maximum request to response latency (Second)
system.mem_ctrls.numReadWriteTurnArounds           21                       # Number of turnarounds from READ to WRITE (Count)
system.mem_ctrls.numWriteReadTurnArounds           21                       # Number of turnarounds from WRITE to READ (Count)
system.mem_ctrls.numStayReadState                2161                       # Number of times bus staying in READ state (Count)
system.mem_ctrls.numStayWriteState                315                       # Number of times bus staying in WRITE state (Count)
system.mem_ctrls.readReqs                         877                       # Number of read requests accepted (Count)
system.mem_ctrls.writeReqs                        366                       # Number of write requests accepted (Count)
system.mem_ctrls.readBursts                       877                       # Number of controller read bursts, including those serviced by the write queue (Count)
system.mem_ctrls.writeBursts                      366                       # Number of controller write bursts, including those merged in the write queue (Count)
system.mem_ctrls.servicedByWrQ                      4                       # Number of controller read bursts serviced by the write queue (Count)
system.mem_ctrls.mergedWrBursts                     0                       # Number of controller write bursts merged with an existing one (Count)
system.mem_ctrls.neitherReadNorWriteReqs            0                       # Number of requests that are neither read nor write (Count)
system.mem_ctrls.avgRdQLen                       1.00                       # Average read queue length when enqueuing ((Count/Tick))
system.mem_ctrls.avgWrQLen                      25.98                       # Average write queue length when enqueuing ((Count/Tick))
system.mem_ctrls.numRdRetry                         0                       # Number of times read queue was full causing retry (Count)
system.mem_ctrls.numWrRetry                         0                       # Number of times write queue was full causing retry (Count)
system.mem_ctrls.readPktSize::0                     0                       # Read request sizes (log2) (Count)
system.mem_ctrls.readPktSize::1                     0                       # Read request sizes (log2) (Count)
system.mem_ctrls.readPktSize::2                     0                       # Read request sizes (log2) (Count)
system.mem_ctrls.readPktSize::3                     0                       # Read request sizes (log2) (Count)
system.mem_ctrls.readPktSize::4                     0                       # Read request sizes (log2) (Count)
system.mem_ctrls.readPktSize::5                     0                       # Read request sizes (log2) (Count)
system.mem_ctrls.readPktSize::6                   877                       # Read request sizes (log2) (Count)
system.mem_ctrls.writePktSize::0                    0                       # Write request sizes (log2) (Count)
system.mem_ctrls.writePktSize::1                    0                       # Write request sizes (log2) (Count)
system.mem_ctrls.writePktSize::2                    0                       # Write request sizes (log2) (Count)
system.mem_ctrls.writePktSize::3                    0                       # Write request sizes (log2) (Count)
system.mem_ctrls.writePktSize::4                    0                       # Write request sizes (log2) (Count)
system.mem_ctrls.writePktSize::5                    0                       # Write request sizes (log2) (Count)
system.mem_ctrls.writePktSize::6                  366                       # Write request sizes (log2) (Count)
system.mem_ctrls.rdQLenPdf::0                     872                       # What read queue length does an incoming req see (Count)
system.mem_ctrls.rdQLenPdf::1                       1                       # What read queue length does an incoming req see (Count)
system.mem_ctrls.rdQLenPdf::2                       0                       # What read queue length does an incoming req see (Count)
system.mem_ctrls.rdQLenPdf::3                       0                       # What read queue length does an incoming req see (Count)
system.mem_ctrls.rdQLenPdf::4                       0                       # What read queue length does an incoming req see (Count)
system.mem_ctrls.rdQLenPdf::5                       0                       # What read queue length does an incoming req see (Count)
system.mem_ctrls.rdQLenPdf::6                       0                       # What read queue length does an incoming req see (Count)
system.mem_ctrls.rdQLenPdf::7                       0                       # What read queue length does an incoming req see (Count)
system.mem_ctrls.rdQLenPdf::8                       0                       # What read queue length does an incoming req see (Count)
system.mem_ctrls.rdQLenPdf::9                       0                       # What read queue length does an incoming req see (Count)
system.mem_ctrls.rdQLenPdf::10                      0                       # What read queue length does an incoming req see (Count)
system.mem_ctrls.rdQLenPdf::11                      0                       # What read queue length does an incoming req see (Count)
system.mem_ctrls.rdQLenPdf::12                      0                       # What read queue length does an incoming req see (Count)
system.mem_ctrls.rdQLenPdf::13                      0                       # What read queue length does an incoming req see (Count)
system.mem_ctrls.rdQLenPdf::14                      0                       # What read queue length does an incoming req see (Count)
system.mem_ctrls.rdQLenPdf::15                      0                       # What read queue length does an incoming req see (Count)
system.mem_ctrls.rdQLenPdf::16                      0                       # What read queue length does an incoming req see (Count)
system.mem_ctrls.rdQLenPdf::17                      0                       # What read queue length does an incoming req see (Count)
system.mem_ctrls.rdQLenPdf::18                      0                       # What read queue length does an incoming req see (Count)
system.mem_ctrls.rdQLenPdf::19                      0                       # What read queue length does an incoming req see (Count)
system.mem_ctrls.rdQLenPdf::20                      0                       # What read queue length does an incoming req see (Count)
system.mem_ctrls.rdQLenPdf::21                      0                       # What read queue length does an incoming req see (Count)
system.mem_ctrls.rdQLenPdf::22                      0                       # What read queue length does an incoming req see (Count)
system.mem_ctrls.rdQLenPdf::23                      0                       # What read queue length does an incoming req see (Count)
system.mem_ctrls.rdQLenPdf::24                      0                       # What read queue length does an incoming req see (Count)
system.mem_ctrls.rdQLenPdf::25                      0                       # What read queue length does an incoming req see (Count)
system.mem_ctrls.rdQLenPdf::26                      0                       # What read queue length does an incoming req see (Count)
system.mem_ctrls.rdQLenPdf::27                      0                       # What read queue length does an incoming req see (Count)
system.mem_ctrls.rdQLenPdf::28                      0                       # What read queue length does an incoming req see (Count)
system.mem_ctrls.rdQLenPdf::29                      0                       # What read queue length does an incoming req see (Count)
system.mem_ctrls.rdQLenPdf::30                      0                       # What read queue length does an incoming req see (Count)
system.mem_ctrls.rdQLenPdf::31                      0                       # What read queue length does an incoming req see (Count)
system.mem_ctrls.wrQLenPdf::0                       1                       # What write queue length does an incoming req see (Count)
system.mem_ctrls.wrQLenPdf::1                       1                       # What write queue length does an incoming req see (Count)
system.mem_ctrls.wrQLenPdf::2                       1                       # What write queue length does an incoming req see (Count)
system.mem_ctrls.wrQLenPdf::3                       1                       # What write queue length does an incoming req see (Count)
system.mem_ctrls.wrQLenPdf::4                       1                       # What write queue length does an incoming req see (Count)
system.mem_ctrls.wrQLenPdf::5                       1                       # What write queue length does an incoming req see (Count)
system.mem_ctrls.wrQLenPdf::6                       1                       # What write queue length does an incoming req see (Count)
system.mem_ctrls.wrQLenPdf::7                       1                       # What write queue length does an incoming req see (Count)
system.mem_ctrls.wrQLenPdf::8                       1                       # What write queue length does an incoming req see (Count)
system.mem_ctrls.wrQLenPdf::9                       1                       # What write queue length does an incoming req see (Count)
system.mem_ctrls.wrQLenPdf::10                      1                       # What write queue length does an incoming req see (Count)
system.mem_ctrls.wrQLenPdf::11                      1                       # What write queue length does an incoming req see (Count)
system.mem_ctrls.wrQLenPdf::12                      1                       # What write queue length does an incoming req see (Count)
system.mem_ctrls.wrQLenPdf::13                      1                       # What write queue length does an incoming req see (Count)
system.mem_ctrls.wrQLenPdf::14                      1                       # What write queue length does an incoming req see (Count)
system.mem_ctrls.wrQLenPdf::15                      1                       # What write queue length does an incoming req see (Count)
system.mem_ctrls.wrQLenPdf::16                      1                       # What write queue length does an incoming req see (Count)
system.mem_ctrls.wrQLenPdf::17                     21                       # What write queue length does an incoming req see (Count)
system.mem_ctrls.wrQLenPdf::18                     22                       # What write queue length does an incoming req see (Count)
system.mem_ctrls.wrQLenPdf::19                     22                       # What write queue length does an incoming req see (Count)
system.mem_ctrls.wrQLenPdf::20                     22                       # What write queue length does an incoming req see (Count)
system.mem_ctrls.wrQLenPdf::21                     22                       # What write queue length does an incoming req see (Count)
system.mem_ctrls.wrQLenPdf::22                     23                       # What write queue length does an incoming req see (Count)
system.mem_ctrls.wrQLenPdf::23                     22                       # What write queue length does an incoming req see (Count)
system.mem_ctrls.wrQLenPdf::24                     22                       # What write queue length does an incoming req see (Count)
system.mem_ctrls.wrQLenPdf::25                     22                       # What write queue length does an incoming req see (Count)
system.mem_ctrls.wrQLenPdf::26                     22                       # What write queue length does an incoming req see (Count)
system.mem_ctrls.wrQLenPdf::27                     22                       # What write queue length does an incoming req see (Count)
system.mem_ctrls.wrQLenPdf::28                     22                       # What write queue length does an incoming req see (Count)
system.mem_ctrls.wrQLenPdf::29                     22                       # What write queue length does an incoming req see (Count)
system.mem_ctrls.wrQLenPdf::30                     21                       # What write queue length does an incoming req see (Count)
system.mem_ctrls.wrQLenPdf::31                     21                       # What write queue length does an incoming req see (Count)
system.mem_ctrls.wrQLenPdf::32                     21                       # What write queue length does an incoming req see (Count)
system.mem_ctrls.wrQLenPdf::33                      0                       # What write queue length does an incoming req see (Count)
system.mem_ctrls.wrQLenPdf::34                      0                       # What write queue length does an incoming req see (Count)
system.mem_ctrls.wrQLenPdf::35                      0                       # What write queue length does an incoming req see (Count)
system.mem_ctrls.wrQLenPdf::36                      0                       # What write queue length does an incoming req see (Count)
system.mem_ctrls.wrQLenPdf::37                      0                       # What write queue length does an incoming req see (Count)
system.mem_ctrls.wrQLenPdf::38                      0                       # What write queue length does an incoming req see (Count)
system.mem_ctrls.wrQLenPdf::39                      0                       # What write queue length does an incoming req see (Count)
system.mem_ctrls.wrQLenPdf::40                      0                       # What write queue length does an incoming req see (Count)
system.mem_ctrls.wrQLenPdf::41                      0                       # What write queue length does an incoming req see (Count)
system.mem_ctrls.wrQLenPdf::42                      0                       # What write queue length does an incoming req see (Count)
system.mem_ctrls.wrQLenPdf::43                      0                       # What write queue length does an incoming req see (Count)
system.mem_ctrls.wrQLenPdf::44                      0                       # What write queue length does an incoming req see (Count)
system.mem_ctrls.wrQLenPdf::45                      0                       # What write queue length does an incoming req see (Count)
system.mem_ctrls.wrQLenPdf::46                      0                       # What write queue length does an incoming req see (Count)
system.mem_ctrls.wrQLenPdf::47                      0                       # What write queue length does an incoming req see (Count)
system.mem_ctrls.wrQLenPdf::48                      0                       # What write queue length does an incoming req see (Count)
system.mem_ctrls.wrQLenPdf::49                      0                       # What write queue length does an incoming req see (Count)
system.mem_ctrls.wrQLenPdf::50                      0                       # What write queue length does an incoming req see (Count)
system.mem_ctrls.wrQLenPdf::51                      0                       # What write queue length does an incoming req see (Count)
system.mem_ctrls.wrQLenPdf::52                      0                       # What write queue length does an incoming req see (Count)
system.mem_ctrls.wrQLenPdf::53                      0                       # What write queue length does an incoming req see (Count)
system.mem_ctrls.wrQLenPdf::54                      0                       # What write queue length does an incoming req see (Count)
system.mem_ctrls.wrQLenPdf::55                      0                       # What write queue length does an incoming req see (Count)
system.mem_ctrls.wrQLenPdf::56                      0                       # What write queue length does an incoming req see (Count)
system.mem_ctrls.wrQLenPdf::57                      0                       # What write queue length does an incoming req see (Count)
system.mem_ctrls.wrQLenPdf::58                      0                       # What write queue length does an incoming req see (Count)
system.mem_ctrls.wrQLenPdf::59                      0                       # What write queue length does an incoming req see (Count)
system.mem_ctrls.wrQLenPdf::60                      0                       # What write queue length does an incoming req see (Count)
system.mem_ctrls.wrQLenPdf::61                      0                       # What write queue length does an incoming req see (Count)
system.mem_ctrls.wrQLenPdf::62                      0                       # What write queue length does an incoming req see (Count)
system.mem_ctrls.wrQLenPdf::63                      0                       # What write queue length does an incoming req see (Count)
system.mem_ctrls.rdPerTurnAround::samples           21                       # Reads before turning the bus around for writes (Count)
system.mem_ctrls.rdPerTurnAround::mean      40.904762                       # Reads before turning the bus around for writes (Count)
system.mem_ctrls.rdPerTurnAround::gmean     23.300711                       # Reads before turning the bus around for writes (Count)
system.mem_ctrls.rdPerTurnAround::stdev     91.928725                       # Reads before turning the bus around for writes (Count)
system.mem_ctrls.rdPerTurnAround::16-31            19     90.48%     90.48% # Reads before turning the bus around for writes (Count)
system.mem_ctrls.rdPerTurnAround::32-47             1      4.76%     95.24% # Reads before turning the bus around for writes (Count)
system.mem_ctrls.rdPerTurnAround::432-447            1      4.76%    100.00% # Reads before turning the bus around for writes (Count)
system.mem_ctrls.rdPerTurnAround::total            21                       # Reads before turning the bus around for writes (Count)
system.mem_ctrls.wrPerTurnAround::samples           21                       # Writes before turning the bus around for reads (Count)
system.mem_ctrls.wrPerTurnAround::mean             16                       # Writes before turning the bus around for reads (Count)
system.mem_ctrls.wrPerTurnAround::gmean     16.000000                       # Writes before turning the bus around for reads (Count)
system.mem_ctrls.wrPerTurnAround::16               21    100.00%    100.00% # Writes before turning the bus around for reads (Count)
system.mem_ctrls.wrPerTurnAround::total            21                       # Writes before turning the bus around for reads (Count)
system.mem_ctrls.bytesReadWrQ                     256                       # Total number of bytes read from write queue (Byte)
system.mem_ctrls.bytesReadSys                   56128                       # Total read bytes from the system interface side (Byte)
system.mem_ctrls.bytesWrittenSys                23424                       # Total written bytes from the system interface side (Byte)
system.mem_ctrls.avgRdBWSys              200001425.32372665                       # Average system read bandwidth in Byte/s ((Byte/Second))
system.mem_ctrls.avgWrBWSys              83466957.43270691                       # Average system write bandwidth in Byte/s ((Byte/Second))
system.mem_ctrls.totGap                     280311000                       # Total gap between requests (Tick)
system.mem_ctrls.avgGap                     225511.67                       # Average gap between requests ((Tick/Count))
system.mem_ctrls.requestorReadBytes::ruby.dir_cntrl0        55872                       # Per-requestor bytes read from memory (Byte)
system.mem_ctrls.requestorWriteBytes::ruby.dir_cntrl0        21504                       # Per-requestor bytes write to memory (Byte)
system.mem_ctrls.requestorReadRate::ruby.dir_cntrl0 199089218.138669759035                       # Per-requestor bytes read from memory rate ((Byte/Second))
system.mem_ctrls.requestorWriteRate::ruby.dir_cntrl0 76625403.544780105352                       # Per-requestor bytes write to memory rate ((Byte/Second))
system.mem_ctrls.requestorReadAccesses::ruby.dir_cntrl0          877                       # Per-requestor read serviced memory accesses (Count)
system.mem_ctrls.requestorWriteAccesses::ruby.dir_cntrl0          366                       # Per-requestor write serviced memory accesses (Count)
system.mem_ctrls.requestorReadTotalLat::ruby.dir_cntrl0     24561250                       # Per-requestor read total memory access latency (Tick)
system.mem_ctrls.requestorWriteTotalLat::ruby.dir_cntrl0   6341478250                       # Per-requestor write total memory access latency (Tick)
system.mem_ctrls.requestorReadAvgLat::ruby.dir_cntrl0     28005.99                       # Per-requestor read average memory access latency ((Tick/Count))
system.mem_ctrls.requestorWriteAvgLat::ruby.dir_cntrl0  17326443.31                       # Per-requestor write average memory access latency ((Tick/Count))
system.mem_ctrls.dram.bytesRead::ruby.dir_cntrl0        56128                       # Number of bytes read from this memory (Byte)
system.mem_ctrls.dram.bytesRead::total          56128                       # Number of bytes read from this memory (Byte)
system.mem_ctrls.dram.bytesWritten::ruby.dir_cntrl0        23424                       # Number of bytes written to this memory (Byte)
system.mem_ctrls.dram.bytesWritten::total        23424                       # Number of bytes written to this memory (Byte)
system.mem_ctrls.dram.numReads::ruby.dir_cntrl0          877                       # Number of read requests responded to by this memory (Count)
system.mem_ctrls.dram.numReads::total             877                       # Number of read requests responded to by this memory (Count)
system.mem_ctrls.dram.numWrites::ruby.dir_cntrl0          366                       # Number of write requests responded to by this memory (Count)
system.mem_ctrls.dram.numWrites::total            366                       # Number of write requests responded to by this memory (Count)
system.mem_ctrls.dram.bwRead::ruby.dir_cntrl0    200001425                       # Total read bandwidth from this memory ((Byte/Second))
system.mem_ctrls.dram.bwRead::total         200001425                       # Total read bandwidth from this memory ((Byte/Second))
system.mem_ctrls.dram.bwWrite::ruby.dir_cntrl0     83466957                       # Write bandwidth from this memory ((Byte/Second))
system.mem_ctrls.dram.bwWrite::total         83466957                       # Write bandwidth from this memory ((Byte/Second))
system.mem_ctrls.dram.bwTotal::ruby.dir_cntrl0    283468383                       # Total bandwidth to/from this memory ((Byte/Second))
system.mem_ctrls.dram.bwTotal::total        283468383                       # Total bandwidth to/from this memory ((Byte/Second))
system.mem_ctrls.dram.readBursts                  873                       # Number of DRAM read bursts (Count)
system.mem_ctrls.dram.writeBursts                 336                       # Number of DRAM write bursts (Count)
system.mem_ctrls.dram.perBankRdBursts::0          148                       # Per bank write bursts (Count)
system.mem_ctrls.dram.perBankRdBursts::1           82                       # Per bank write bursts (Count)
system.mem_ctrls.dram.perBankRdBursts::2          109                       # Per bank write bursts (Count)
system.mem_ctrls.dram.perBankRdBursts::3           42                       # Per bank write bursts (Count)
system.mem_ctrls.dram.perBankRdBursts::4           16                       # Per bank write bursts (Count)
system.mem_ctrls.dram.perBankRdBursts::5           71                       # Per bank write bursts (Count)
system.mem_ctrls.dram.perBankRdBursts::6          121                       # Per bank write bursts (Count)
system.mem_ctrls.dram.perBankRdBursts::7           40                       # Per bank write bursts (Count)
system.mem_ctrls.dram.perBankRdBursts::8           33                       # Per bank write bursts (Count)
system.mem_ctrls.dram.perBankRdBursts::9           17                       # Per bank write bursts (Count)
system.mem_ctrls.dram.perBankRdBursts::10           11                       # Per bank write bursts (Count)
system.mem_ctrls.dram.perBankRdBursts::11           20                       # Per bank write bursts (Count)
system.mem_ctrls.dram.perBankRdBursts::12           72                       # Per bank write bursts (Count)
system.mem_ctrls.dram.perBankRdBursts::13           39                       # Per bank write bursts (Count)
system.mem_ctrls.dram.perBankRdBursts::14           50                       # Per bank write bursts (Count)
system.mem_ctrls.dram.perBankRdBursts::15            2                       # Per bank write bursts (Count)
system.mem_ctrls.dram.perBankWrBursts::0           31                       # Per bank write bursts (Count)
system.mem_ctrls.dram.perBankWrBursts::1           54                       # Per bank write bursts (Count)
system.mem_ctrls.dram.perBankWrBursts::2           55                       # Per bank write bursts (Count)
system.mem_ctrls.dram.perBankWrBursts::3           11                       # Per bank write bursts (Count)
system.mem_ctrls.dram.perBankWrBursts::4            3                       # Per bank write bursts (Count)
system.mem_ctrls.dram.perBankWrBursts::5           15                       # Per bank write bursts (Count)
system.mem_ctrls.dram.perBankWrBursts::6           53                       # Per bank write bursts (Count)
system.mem_ctrls.dram.perBankWrBursts::7           17                       # Per bank write bursts (Count)
system.mem_ctrls.dram.perBankWrBursts::8           14                       # Per bank write bursts (Count)
system.mem_ctrls.dram.perBankWrBursts::9            0                       # Per bank write bursts (Count)
system.mem_ctrls.dram.perBankWrBursts::10            0                       # Per bank write bursts (Count)
system.mem_ctrls.dram.perBankWrBursts::11            6                       # Per bank write bursts (Count)
system.mem_ctrls.dram.perBankWrBursts::12           25                       # Per bank write bursts (Count)
system.mem_ctrls.dram.perBankWrBursts::13           19                       # Per bank write bursts (Count)
system.mem_ctrls.dram.perBankWrBursts::14           33                       # Per bank write bursts (Count)
system.mem_ctrls.dram.perBankWrBursts::15            0                       # Per bank write bursts (Count)
system.mem_ctrls.dram.totQLat                 8192500                       # Total ticks spent queuing (Tick)
system.mem_ctrls.dram.totBusLat               4365000                       # Total ticks spent in databus transfers (Tick)
system.mem_ctrls.dram.totMemAccLat           24561250                       # Total ticks spent from burst creation until serviced by the DRAM (Tick)
system.mem_ctrls.dram.avgQLat                 9384.31                       # Average queueing delay per DRAM burst ((Tick/Count))
system.mem_ctrls.dram.avgBusLat               5000.00                       # Average bus latency per DRAM burst ((Tick/Count))
system.mem_ctrls.dram.avgMemAccLat           28134.31                       # Average memory access latency per DRAM burst ((Tick/Count))
system.mem_ctrls.dram.readRowHits                 672                       # Number of row buffer hits during reads (Count)
system.mem_ctrls.dram.writeRowHits                233                       # Number of row buffer hits during writes (Count)
system.mem_ctrls.dram.readRowHitRate            76.98                       # Row buffer hit rate for reads (Ratio)
system.mem_ctrls.dram.writeRowHitRate           69.35                       # Row buffer hit rate for writes (Ratio)
system.mem_ctrls.dram.bytesPerActivate::samples          303                       # Bytes accessed per row activation (Byte)
system.mem_ctrls.dram.bytesPerActivate::mean   255.155116                       # Bytes accessed per row activation (Byte)
system.mem_ctrls.dram.bytesPerActivate::gmean   169.379865                       # Bytes accessed per row activation (Byte)
system.mem_ctrls.dram.bytesPerActivate::stdev   262.382611                       # Bytes accessed per row activation (Byte)
system.mem_ctrls.dram.bytesPerActivate::0-127           93     30.69%     30.69% # Bytes accessed per row activation (Byte)
system.mem_ctrls.dram.bytesPerActivate::128-255          106     34.98%     65.68% # Bytes accessed per row activation (Byte)
system.mem_ctrls.dram.bytesPerActivate::256-383           39     12.87%     78.55% # Bytes accessed per row activation (Byte)
system.mem_ctrls.dram.bytesPerActivate::384-511           18      5.94%     84.49% # Bytes accessed per row activation (Byte)
system.mem_ctrls.dram.bytesPerActivate::512-639           15      4.95%     89.44% # Bytes accessed per row activation (Byte)
system.mem_ctrls.dram.bytesPerActivate::640-767            7      2.31%     91.75% # Bytes accessed per row activation (Byte)
system.mem_ctrls.dram.bytesPerActivate::768-895            4      1.32%     93.07% # Bytes accessed per row activation (Byte)
system.mem_ctrls.dram.bytesPerActivate::896-1023            3      0.99%     94.06% # Bytes accessed per row activation (Byte)
system.mem_ctrls.dram.bytesPerActivate::1024-1151           18      5.94%    100.00% # Bytes accessed per row activation (Byte)
system.mem_ctrls.dram.bytesPerActivate::total          303                       # Bytes accessed per row activation (Byte)
system.mem_ctrls.dram.dramBytesRead             55872                       # Total bytes read (Byte)
system.mem_ctrls.dram.dramBytesWritten          21504                       # Total bytes written (Byte)
system.mem_ctrls.dram.avgRdBW              199.089218                       # Average DRAM read bandwidth in MiBytes/s ((Byte/Second))
system.mem_ctrls.dram.avgWrBW               76.625404                       # Average DRAM write bandwidth in MiBytes/s ((Byte/Second))
system.mem_ctrls.dram.peakBW                 12800.00                       # Theoretical peak bandwidth in MiByte/s ((Byte/Second))
system.mem_ctrls.dram.busUtil                    2.15                       # Data bus utilization in percentage (Ratio)
system.mem_ctrls.dram.busUtilRead                1.56                       # Data bus utilization in percentage for reads (Ratio)
system.mem_ctrls.dram.busUtilWrite               0.60                       # Data bus utilization in percentage for writes (Ratio)
system.mem_ctrls.dram.pageHitRate               74.86                       # Row buffer hit rate, read and write combined (Ratio)
system.mem_ctrls.dram.power_state.pwrStateResidencyTicks::UNDEFINED    280638000                       # Cumulative time (in ticks) in various power states (Tick)
system.mem_ctrls.dram.rank0.actEnergy         1563660                       # Energy for activate commands per rank (pJ) (Joule)
system.mem_ctrls.dram.rank0.preEnergy          827310                       # Energy for precharge commands per rank (pJ) (Joule)
system.mem_ctrls.dram.rank0.readEnergy        4491060                       # Energy for read commands per rank (pJ) (Joule)
system.mem_ctrls.dram.rank0.writeEnergy       1247580                       # Energy for write commands per rank (pJ) (Joule)
system.mem_ctrls.dram.rank0.refreshEnergy 22127040.000000                       # Energy for refresh commands per rank (pJ) (Joule)
system.mem_ctrls.dram.rank0.actBackEnergy     36281070                       # Energy for active background per rank (pJ) (Joule)
system.mem_ctrls.dram.rank0.preBackEnergy     77212800                       # Energy for precharge background per rank (pJ) (Joule)
system.mem_ctrls.dram.rank0.actPowerDownEnergy            0                       # Energy for active power-down per rank (pJ) (Joule)
system.mem_ctrls.dram.rank0.prePowerDownEnergy            0                       # Energy for precharge power-down per rank (pJ) (Joule)
system.mem_ctrls.dram.rank0.selfRefreshEnergy            0                       # Energy for self refresh per rank (pJ) (Joule)
system.mem_ctrls.dram.rank0.totalEnergy     143750520                       # Total energy per rank (pJ) (Joule)
system.mem_ctrls.dram.rank0.averagePower   512.227567                       # Core power per rank (mW) (Watt)
system.mem_ctrls.dram.rank0.totalIdleTime            0                       # Total Idle time Per DRAM Rank (Tick)
system.mem_ctrls.dram.rank0.pwrStateTime::IDLE    200344250                       # Time in different power states (Tick)
system.mem_ctrls.dram.rank0.pwrStateTime::REF      9360000                       # Time in different power states (Tick)
system.mem_ctrls.dram.rank0.pwrStateTime::SREF            0                       # Time in different power states (Tick)
system.mem_ctrls.dram.rank0.pwrStateTime::PRE_PDN            0                       # Time in different power states (Tick)
system.mem_ctrls.dram.rank0.pwrStateTime::ACT     70933750                       # Time in different power states (Tick)
system.mem_ctrls.dram.rank0.pwrStateTime::ACT_PDN            0                       # Time in different power states (Tick)
system.mem_ctrls.dram.rank1.actEnergy          606900                       # Energy for activate commands per rank (pJ) (Joule)
system.mem_ctrls.dram.rank1.preEnergy          322575                       # Energy for precharge commands per rank (pJ) (Joule)
system.mem_ctrls.dram.rank1.readEnergy        1742160                       # Energy for read commands per rank (pJ) (Joule)
system.mem_ctrls.dram.rank1.writeEnergy        506340                       # Energy for write commands per rank (pJ) (Joule)
system.mem_ctrls.dram.rank1.refreshEnergy 22127040.000000                       # Energy for refresh commands per rank (pJ) (Joule)
system.mem_ctrls.dram.rank1.actBackEnergy     33652230                       # Energy for active background per rank (pJ) (Joule)
system.mem_ctrls.dram.rank1.preBackEnergy     79426560                       # Energy for precharge background per rank (pJ) (Joule)
system.mem_ctrls.dram.rank1.actPowerDownEnergy            0                       # Energy for active power-down per rank (pJ) (Joule)
system.mem_ctrls.dram.rank1.prePowerDownEnergy            0                       # Energy for precharge power-down per rank (pJ) (Joule)
system.mem_ctrls.dram.rank1.selfRefreshEnergy            0                       # Energy for self refresh per rank (pJ) (Joule)
system.mem_ctrls.dram.rank1.totalEnergy     138383805                       # Total energy per rank (pJ) (Joule)
system.mem_ctrls.dram.rank1.averagePower   493.104302                       # Core power per rank (mW) (Watt)
system.mem_ctrls.dram.rank1.totalIdleTime            0                       # Total Idle time Per DRAM Rank (Tick)
system.mem_ctrls.dram.rank1.pwrStateTime::IDLE    206204750                       # Time in different power states (Tick)
system.mem_ctrls.dram.rank1.pwrStateTime::REF      9360000                       # Time in different power states (Tick)
system.mem_ctrls.dram.rank1.pwrStateTime::SREF            0                       # Time in different power states (Tick)
system.mem_ctrls.dram.rank1.pwrStateTime::PRE_PDN            0                       # Time in different power states (Tick)
system.mem_ctrls.dram.rank1.pwrStateTime::ACT     65073250                       # Time in different power states (Tick)
system.mem_ctrls.dram.rank1.pwrStateTime::ACT_PDN            0                       # Time in different power states (Tick)
system.mem_ctrls.power_state.pwrStateResidencyTicks::UNDEFINED    280638000                       # Cumulative time (in ticks) in various power states (Tick)
system.ruby.delayHistogram::bucket_size             1                       # delay histogram for all message (Unspecified)
system.ruby.delayHistogram::max_bucket              9                       # delay histogram for all message (Unspecified)
system.ruby.delayHistogram::samples              1243                       # delay histogram for all message (Unspecified)
system.ruby.delayHistogram               |        1243    100.00%    100.00% |           0      0.00%    100.00% |           0      0.00%    100.00% |           0      0.00%    100.00% |           0      0.00%    100.00% |           0      0.00%    100.00% |           0      0.00%    100.00% |           0      0.00%    100.00% |           0      0.00%    100.00% |           0      0.00%    100.00% # delay histogram for all message (Unspecified)
system.ruby.delayHistogram::total                1243                       # delay histogram for all message (Unspecified)
system.ruby.m_outstandReqHistSeqr::bucket_size            1                       (Unspecified)
system.ruby.m_outstandReqHistSeqr::max_bucket            9                       (Unspecified)
system.ruby.m_outstandReqHistSeqr::samples       230275                       (Unspecified)
system.ruby.m_outstandReqHistSeqr::mean      1.000017                       (Unspecified)
system.ruby.m_outstandReqHistSeqr::gmean     1.000012                       (Unspecified)
system.ruby.m_outstandReqHistSeqr::stdev     0.004168                       (Unspecified)
system.ruby.m_outstandReqHistSeqr        |           0      0.00%      0.00% |      230271    100.00%    100.00% |           4      0.00%    100.00% |           0      0.00%    100.00% |           0      0.00%    100.00% |           0      0.00%    100.00% |           0      0.00%    100.00% |           0      0.00%    100.00% |           0      0.00%    100.00% |           0      0.00%    100.00% (Unspecified)
system.ruby.m_outstandReqHistSeqr::total       230275                       (Unspecified)
system.ruby.m_latencyHistSeqr::bucket_size          128                       (Unspecified)
system.ruby.m_latencyHistSeqr::max_bucket         1279                       (Unspecified)
system.ruby.m_latencyHistSeqr::samples         230275                       (Unspecified)
system.ruby.m_latencyHistSeqr::mean          1.438098                       (Unspecified)
system.ruby.m_latencyHistSeqr::gmean         1.018043                       (Unspecified)
system.ruby.m_latencyHistSeqr::stdev         8.007891                       (Unspecified)
system.ruby.m_latencyHistSeqr            |      230148     99.94%     99.94% |          98      0.04%     99.99% |          20      0.01%    100.00% |           1      0.00%    100.00% |           5      0.00%    100.00% |           3      0.00%    100.00% |           0      0.00%    100.00% |           0      0.00%    100.00% |           0      0.00%    100.00% |           0      0.00%    100.00% (Unspecified)
system.ruby.m_latencyHistSeqr::total           230275                       (Unspecified)
system.ruby.m_hitLatencyHistSeqr::bucket_size            1                       (Unspecified)
system.ruby.m_hitLatencyHistSeqr::max_bucket            9                       (Unspecified)
system.ruby.m_hitLatencyHistSeqr::samples       229398                       (Unspecified)
system.ruby.m_hitLatencyHistSeqr::mean              1                       (Unspecified)
system.ruby.m_hitLatencyHistSeqr::gmean             1                       (Unspecified)
system.ruby.m_hitLatencyHistSeqr         |           0      0.00%      0.00% |      229398    100.00%    100.00% |           0      0.00%    100.00% |           0      0.00%    100.00% |           0      0.00%    100.00% |           0      0.00%    100.00% |           0      0.00%    100.00% |           0      0.00%    100.00% |           0      0.00%    100.00% |           0      0.00%    100.00% (Unspecified)
system.ruby.m_hitLatencyHistSeqr::total        229398                       (Unspecified)
system.ruby.m_missLatencyHistSeqr::bucket_size          128                       (Unspecified)
system.ruby.m_missLatencyHistSeqr::max_bucket         1279                       (Unspecified)
system.ruby.m_missLatencyHistSeqr::samples          877                       (Unspecified)
system.ruby.m_missLatencyHistSeqr::mean    116.031927                       (Unspecified)
system.ruby.m_missLatencyHistSeqr::gmean   109.448240                       (Unspecified)
system.ruby.m_missLatencyHistSeqr::stdev    60.496944                       (Unspecified)
system.ruby.m_missLatencyHistSeqr        |         750     85.52%     85.52% |          98     11.17%     96.69% |          20      2.28%     98.97% |           1      0.11%     99.09% |           5      0.57%     99.66% |           3      0.34%    100.00% |           0      0.00%    100.00% |           0      0.00%    100.00% |           0      0.00%    100.00% |           0      0.00%    100.00% (Unspecified)
system.ruby.m_missLatencyHistSeqr::total          877                       (Unspecified)
system.ruby.delayVCHist.vnet_1::bucket_size            1                       # delay histogram for vnet_1 (Unspecified)
system.ruby.delayVCHist.vnet_1::max_bucket            9                       # delay histogram for vnet_1 (Unspecified)
system.ruby.delayVCHist.vnet_1::samples           877                       # delay histogram for vnet_1 (Unspecified)
system.ruby.delayVCHist.vnet_1           |         877    100.00%    100.00% |           0      0.00%    100.00% |           0      0.00%    100.00% |           0      0.00%    100.00% |           0      0.00%    100.00% |           0      0.00%    100.00% |           0      0.00%    100.00% |           0      0.00%    100.00% |           0      0.00%    100.00% |           0      0.00%    100.00% # delay histogram for vnet_1 (Unspecified)
system.ruby.delayVCHist.vnet_1::total             877                       # delay histogram for vnet_1 (Unspecified)
system.ruby.delayVCHist.vnet_2::bucket_size            1                       # delay histogram for vnet_2 (Unspecified)
system.ruby.delayVCHist.vnet_2::max_bucket            9                       # delay histogram for vnet_2 (Unspecified)
system.ruby.delayVCHist.vnet_2::samples           366                       # delay histogram for vnet_2 (Unspecified)
system.ruby.delayVCHist.vnet_2           |         366    100.00%    100.00% |           0      0.00%    100.00% |           0      0.00%    100.00% |           0      0.00%    100.00% |           0      0.00%    100.00% |           0      0.00%    100.00% |           0      0.00%    100.00% |           0      0.00%    100.00% |           0      0.00%    100.00% |           0      0.00%    100.00% # delay histogram for vnet_2 (Unspecified)
system.ruby.delayVCHist.vnet_2::total             366                       # delay histogram for vnet_2 (Unspecified)
system.ruby.Directory_Controller.GETX             877      0.00%      0.00% (Unspecified)
system.ruby.Directory_Controller.PUTX             366      0.00%      0.00% (Unspecified)
system.ruby.Directory_Controller.Memory_Data          877      0.00%      0.00% (Unspecified)
system.ruby.Directory_Controller.Memory_Ack          366      0.00%      0.00% (Unspecified)
system.ruby.Directory_Controller.I.GETX           877      0.00%      0.00% (Unspecified)
system.ruby.Directory_Controller.M.PUTX           366      0.00%      0.00% (Unspecified)
system.ruby.Directory_Controller.IM.Memory_Data          877      0.00%      0.00% (Unspecified)
system.ruby.Directory_Controller.MI.Memory_Ack          366      0.00%      0.00% (Unspecified)
system.ruby.L1Cache_Controller.Load             11853      0.00%      0.00% (Unspecified)
system.ruby.L1Cache_Controller.Ifetch          205835      0.00%      0.00% (Unspecified)
system.ruby.L1Cache_Controller.Store            12587      0.00%      0.00% (Unspecified)
system.ruby.L1Cache_Controller.Data               877      0.00%      0.00% (Unspecified)
system.ruby.L1Cache_Controller.Replacement          366      0.00%      0.00% (Unspecified)
system.ruby.L1Cache_Controller.Writeback_Ack          366      0.00%      0.00% (Unspecified)
system.ruby.L1Cache_Controller.I.Load             145      0.00%      0.00% (Unspecified)
system.ruby.L1Cache_Controller.I.Ifetch           510      0.00%      0.00% (Unspecified)
system.ruby.L1Cache_Controller.I.Store            222      0.00%      0.00% (Unspecified)
system.ruby.L1Cache_Controller.M.Load           11708      0.00%      0.00% (Unspecified)
system.ruby.L1Cache_Controller.M.Ifetch        205325      0.00%      0.00% (Unspecified)
system.ruby.L1Cache_Controller.M.Store          12365      0.00%      0.00% (Unspecified)
system.ruby.L1Cache_Controller.M.Replacement          366      0.00%      0.00% (Unspecified)
system.ruby.L1Cache_Controller.MI.Writeback_Ack          366      0.00%      0.00% (Unspecified)
system.ruby.L1Cache_Controller.IS.Data            655      0.00%      0.00% (Unspecified)
system.ruby.L1Cache_Controller.IM.Data            222      0.00%      0.00% (Unspecified)
system.ruby.MachineType.Directory.miss_mach_latency_hist_seqr::bucket_size          128                       (Unspecified)
system.ruby.MachineType.Directory.miss_mach_latency_hist_seqr::max_bucket         1279                       (Unspecified)
system.ruby.MachineType.Directory.miss_mach_latency_hist_seqr::samples          877                       (Unspecified)
system.ruby.MachineType.Directory.miss_mach_latency_hist_seqr::mean   116.031927                       (Unspecified)
system.ruby.MachineType.Directory.miss_mach_latency_hist_seqr::gmean   109.448240                       (Unspecified)
system.ruby.MachineType.Directory.miss_mach_latency_hist_seqr::stdev    60.496944                       (Unspecified)
system.ruby.MachineType.Directory.miss_mach_latency_hist_seqr |         750     85.52%     85.52% |          98     11.17%     96.69% |          20      2.28%     98.97% |           1      0.11%     99.09% |           5      0.57%     99.66% |           3      0.34%    100.00% |           0      0.00%    100.00% |           0      0.00%    100.00% |           0      0.00%    100.00% |           0      0.00%    100.00% (Unspecified)
system.ruby.MachineType.Directory.miss_mach_latency_hist_seqr::total          877                       (Unspecified)
system.ruby.MachineType.Directory.miss_latency_hist_seqr.issue_to_initial_request::bucket_size            1                       (Unspecified)
system.ruby.MachineType.Directory.miss_latency_hist_seqr.issue_to_initial_request::max_bucket            9                       (Unspecified)
system.ruby.MachineType.Directory.miss_latency_hist_seqr.issue_to_initial_request::samples            1                       (Unspecified)
system.ruby.MachineType.Directory.miss_latency_hist_seqr.issue_to_initial_request::stdev          nan                       (Unspecified)
system.ruby.MachineType.Directory.miss_latency_hist_seqr.issue_to_initial_request |           1    100.00%    100.00% |           0      0.00%    100.00% |           0      0.00%    100.00% |           0      0.00%    100.00% |           0      0.00%    100.00% |           0      0.00%    100.00% |           0      0.00%    100.00% |           0      0.00%    100.00% |           0      0.00%    100.00% |           0      0.00%    100.00% (Unspecified)
system.ruby.MachineType.Directory.miss_latency_hist_seqr.issue_to_initial_request::total            1                       (Unspecified)
system.ruby.MachineType.Directory.miss_latency_hist_seqr.initial_to_forward::bucket_size            1                       (Unspecified)
system.ruby.MachineType.Directory.miss_latency_hist_seqr.initial_to_forward::max_bucket            9                       (Unspecified)
system.ruby.MachineType.Directory.miss_latency_hist_seqr.initial_to_forward::samples            1                       (Unspecified)
system.ruby.MachineType.Directory.miss_latency_hist_seqr.initial_to_forward::stdev          nan                       (Unspecified)
system.ruby.MachineType.Directory.miss_latency_hist_seqr.initial_to_forward |           1    100.00%    100.00% |           0      0.00%    100.00% |           0      0.00%    100.00% |           0      0.00%    100.00% |           0      0.00%    100.00% |           0      0.00%    100.00% |           0      0.00%    100.00% |           0      0.00%    100.00% |           0      0.00%    100.00% |           0      0.00%    100.00% (Unspecified)
system.ruby.MachineType.Directory.miss_latency_hist_seqr.initial_to_forward::total            1                       (Unspecified)
system.ruby.MachineType.Directory.miss_latency_hist_seqr.forward_to_first_response::bucket_size            1                       (Unspecified)
system.ruby.MachineType.Directory.miss_latency_hist_seqr.forward_to_first_response::max_bucket            9                       (Unspecified)
system.ruby.MachineType.Directory.miss_latency_hist_seqr.forward_to_first_response::samples            1                       (Unspecified)
system.ruby.MachineType.Directory.miss_latency_hist_seqr.forward_to_first_response::stdev          nan                       (Unspecified)
system.ruby.MachineType.Directory.miss_latency_hist_seqr.forward_to_first_response |           1    100.00%    100.00% |           0      0.00%    100.00% |           0      0.00%    100.00% |           0      0.00%    100.00% |           0      0.00%    100.00% |           0      0.00%    100.00% |           0      0.00%    100.00% |           0      0.00%    100.00% |           0      0.00%    100.00% |           0      0.00%    100.00% (Unspecified)
system.ruby.MachineType.Directory.miss_latency_hist_seqr.forward_to_first_response::total            1                       (Unspecified)
system.ruby.MachineType.Directory.miss_latency_hist_seqr.first_response_to_completion::bucket_size           16                       (Unspecified)
system.ruby.MachineType.Directory.miss_latency_hist_seqr.first_response_to_completion::max_bucket          159                       (Unspecified)
system.ruby.MachineType.Directory.miss_latency_hist_seqr.first_response_to_completion::samples            1                       (Unspecified)
system.ruby.MachineType.Directory.miss_latency_hist_seqr.first_response_to_completion::mean          141                       (Unspecified)
system.ruby.MachineType.Directory.miss_latency_hist_seqr.first_response_to_completion::gmean   141.000000                       (Unspecified)
system.ruby.MachineType.Directory.miss_latency_hist_seqr.first_response_to_completion::stdev          nan                       (Unspecified)
system.ruby.MachineType.Directory.miss_latency_hist_seqr.first_response_to_completion |           0      0.00%      0.00% |           0      0.00%      0.00% |           0      0.00%      0.00% |           0      0.00%      0.00% |           0      0.00%      0.00% |           0      0.00%      0.00% |           0      0.00%      0.00% |           0      0.00%      0.00% |           1    100.00%    100.00% |           0      0.00%    100.00% (Unspecified)
system.ruby.MachineType.Directory.miss_latency_hist_seqr.first_response_to_completion::total            1                       (Unspecified)
system.ruby.MachineType.Directory.incomplete_times_seqr          876                       (Unspecified)
system.ruby.RequestType.LD.latency_hist_seqr::bucket_size          128                       (Unspecified)
system.ruby.RequestType.LD.latency_hist_seqr::max_bucket         1279                       (Unspecified)
system.ruby.RequestType.LD.latency_hist_seqr::samples        11853                       (Unspecified)
system.ruby.RequestType.LD.latency_hist_seqr::mean     2.511010                       (Unspecified)
system.ruby.RequestType.LD.latency_hist_seqr::gmean     1.059694                       (Unspecified)
system.ruby.RequestType.LD.latency_hist_seqr::stdev    16.120778                       (Unspecified)
system.ruby.RequestType.LD.latency_hist_seqr |       11825     99.76%     99.76% |          22      0.19%     99.95% |           3      0.03%     99.97% |           0      0.00%     99.97% |           2      0.02%     99.99% |           1      0.01%    100.00% |           0      0.00%    100.00% |           0      0.00%    100.00% |           0      0.00%    100.00% |           0      0.00%    100.00% (Unspecified)
system.ruby.RequestType.LD.latency_hist_seqr::total        11853                       (Unspecified)
system.ruby.RequestType.LD.hit_latency_hist_seqr::bucket_size            1                       (Unspecified)
system.ruby.RequestType.LD.hit_latency_hist_seqr::max_bucket            9                       (Unspecified)
system.ruby.RequestType.LD.hit_latency_hist_seqr::samples        11708                       (Unspecified)
system.ruby.RequestType.LD.hit_latency_hist_seqr::mean            1                       (Unspecified)
system.ruby.RequestType.LD.hit_latency_hist_seqr::gmean            1                       (Unspecified)
system.ruby.RequestType.LD.hit_latency_hist_seqr |           0      0.00%      0.00% |       11708    100.00%    100.00% |           0      0.00%    100.00% |           0      0.00%    100.00% |           0      0.00%    100.00% |           0      0.00%    100.00% |           0      0.00%    100.00% |           0      0.00%    100.00% |           0      0.00%    100.00% |           0      0.00%    100.00% (Unspecified)
system.ruby.RequestType.LD.hit_latency_hist_seqr::total        11708                       (Unspecified)
system.ruby.RequestType.LD.miss_latency_hist_seqr::bucket_size          128                       (Unspecified)
system.ruby.RequestType.LD.miss_latency_hist_seqr::max_bucket         1279                       (Unspecified)
system.ruby.RequestType.LD.miss_latency_hist_seqr::samples          145                       (Unspecified)
system.ruby.RequestType.LD.miss_latency_hist_seqr::mean   124.517241                       (Unspecified)
system.ruby.RequestType.LD.miss_latency_hist_seqr::gmean   114.382322                       (Unspecified)
system.ruby.RequestType.LD.miss_latency_hist_seqr::stdev    78.835280                       (Unspecified)
system.ruby.RequestType.LD.miss_latency_hist_seqr |         117     80.69%     80.69% |          22     15.17%     95.86% |           3      2.07%     97.93% |           0      0.00%     97.93% |           2      1.38%     99.31% |           1      0.69%    100.00% |           0      0.00%    100.00% |           0      0.00%    100.00% |           0      0.00%    100.00% |           0      0.00%    100.00% (Unspecified)
system.ruby.RequestType.LD.miss_latency_hist_seqr::total          145                       (Unspecified)
system.ruby.RequestType.ST.latency_hist_seqr::bucket_size          128                       (Unspecified)
system.ruby.RequestType.ST.latency_hist_seqr::max_bucket         1279                       (Unspecified)
system.ruby.RequestType.ST.latency_hist_seqr::samples        12538                       (Unspecified)
system.ruby.RequestType.ST.latency_hist_seqr::mean     2.972165                       (Unspecified)
system.ruby.RequestType.ST.latency_hist_seqr::gmean     1.085277                       (Unspecified)
system.ruby.RequestType.ST.latency_hist_seqr::stdev    16.452443                       (Unspecified)
system.ruby.RequestType.ST.latency_hist_seqr |       12512     99.79%     99.79% |          18      0.14%     99.94% |           7      0.06%     99.99% |           0      0.00%     99.99% |           0      0.00%     99.99% |           1      0.01%    100.00% |           0      0.00%    100.00% |           0      0.00%    100.00% |           0      0.00%    100.00% |           0      0.00%    100.00% (Unspecified)
system.ruby.RequestType.ST.latency_hist_seqr::total        12538                       (Unspecified)
system.ruby.RequestType.ST.hit_latency_hist_seqr::bucket_size            1                       (Unspecified)
system.ruby.RequestType.ST.hit_latency_hist_seqr::max_bucket            9                       (Unspecified)
system.ruby.RequestType.ST.hit_latency_hist_seqr::samples        12319                       (Unspecified)
system.ruby.RequestType.ST.hit_latency_hist_seqr::mean            1                       (Unspecified)
system.ruby.RequestType.ST.hit_latency_hist_seqr::gmean            1                       (Unspecified)
system.ruby.RequestType.ST.hit_latency_hist_seqr |           0      0.00%      0.00% |       12319    100.00%    100.00% |           0      0.00%    100.00% |           0      0.00%    100.00% |           0      0.00%    100.00% |           0      0.00%    100.00% |           0      0.00%    100.00% |           0      0.00%    100.00% |           0      0.00%    100.00% |           0      0.00%    100.00% (Unspecified)
system.ruby.RequestType.ST.hit_latency_hist_seqr::total        12319                       (Unspecified)
system.ruby.RequestType.ST.miss_latency_hist_seqr::bucket_size          128                       (Unspecified)
system.ruby.RequestType.ST.miss_latency_hist_seqr::max_bucket         1279                       (Unspecified)
system.ruby.RequestType.ST.miss_latency_hist_seqr::samples          219                       (Unspecified)
system.ruby.RequestType.ST.miss_latency_hist_seqr::mean   113.908676                       (Unspecified)
system.ruby.RequestType.ST.miss_latency_hist_seqr::gmean   108.328749                       (Unspecified)
system.ruby.RequestType.ST.miss_latency_hist_seqr::stdev    54.622313                       (Unspecified)
system.ruby.RequestType.ST.miss_latency_hist_seqr |         193     88.13%     88.13% |          18      8.22%     96.35% |           7      3.20%     99.54% |           0      0.00%     99.54% |           0      0.00%     99.54% |           1      0.46%    100.00% |           0      0.00%    100.00% |           0      0.00%    100.00% |           0      0.00%    100.00% |           0      0.00%    100.00% (Unspecified)
system.ruby.RequestType.ST.miss_latency_hist_seqr::total          219                       (Unspecified)
system.ruby.RequestType.IFETCH.latency_hist_seqr::bucket_size          128                       (Unspecified)
system.ruby.RequestType.IFETCH.latency_hist_seqr::max_bucket         1279                       (Unspecified)
system.ruby.RequestType.IFETCH.latency_hist_seqr::samples       205835                       (Unspecified)
system.ruby.RequestType.IFETCH.latency_hist_seqr::mean     1.281439                       (Unspecified)
system.ruby.RequestType.IFETCH.latency_hist_seqr::gmean     1.011682                       (Unspecified)
system.ruby.RequestType.IFETCH.latency_hist_seqr::stdev     6.316091                       (Unspecified)
[...]
system.ruby.network.int_links2.buffers4.m_msg_count          877                       # Number of messages passed the buffer (Count)
system.ruby.network.int_links2.buffers4.m_buf_msgs     0.001563                       # Average number of messages in buffer ((Count/Tick))
system.ruby.network.int_links3.buffers2.m_msg_count         1243                       # Number of messages passed the buffer (Count)
system.ruby.network.int_links3.buffers2.m_buf_msgs     0.002215                       # Average number of messages in buffer ((Count/Tick))
system.ruby.network.power_state.pwrStateResidencyTicks::UNDEFINED    280638000                       # Cumulative time (in ticks) in various power states (Tick)
system.ruby.network.routers0.percent_links_utilized     0.553649                       (Unspecified)
system.ruby.network.routers0.msg_count.Control::2          877                       (Unspecified)
system.ruby.network.routers0.msg_bytes.Control::2         7016                       (Unspecified)
system.ruby.network.routers0.msg_count.Data::2          366                       (Unspecified)
system.ruby.network.routers0.msg_bytes.Data::2        26352                       (Unspecified)
system.ruby.network.routers0.msg_count.Response_Data::4          877                       (Unspecified)
system.ruby.network.routers0.msg_bytes.Response_Data::4        63144                       (Unspecified)
system.ruby.network.routers0.msg_count.Writeback_Control::3          366                       (Unspecified)
system.ruby.network.routers0.msg_bytes.Writeback_Control::3         2928                       (Unspecified)
system.ruby.network.routers0.port_buffers3.m_msg_count          366                       # Number of messages passed the buffer (Count)
system.ruby.network.routers0.port_buffers3.m_buf_msgs     0.000652                       # Average number of messages in buffer ((Count/Tick))
system.ruby.network.routers0.port_buffers4.m_msg_count          877                       # Number of messages passed the buffer (Count)
system.ruby.network.routers0.port_buffers4.m_buf_msgs     0.001563                       # Average number of messages in buffer ((Count/Tick))
system.ruby.network.routers0.port_buffers7.m_msg_count         1243                       # Number of messages passed the buffer (Count)
system.ruby.network.routers0.port_buffers7.m_buf_msgs     0.004823                       # Average number of messages in buffer ((Count/Tick))
system.ruby.network.routers0.port_buffers7.m_stall_time       732000                       # Total number of ticks messages were stalled in this buffer (Tick)
system.ruby.network.routers0.port_buffers7.m_avg_stall_time   588.897828                       # Average stall ticks per message ((Tick/Count))
system.ruby.network.routers0.power_state.pwrStateResidencyTicks::UNDEFINED    280638000                       # Cumulative time (in ticks) in various power states (Tick)
system.ruby.network.routers0.throttle00.acc_link_utilization  4129.500000                       # Accumulated link utilization system.ruby.network.ext_links0 (Count)
system.ruby.network.routers0.throttle00.link_utilization     0.735734                       # Average link utilization (Ratio)
system.ruby.network.routers0.throttle00.total_msg_count         1243                       # Total number of messages forwarded by this switch (Count)
system.ruby.network.routers0.throttle00.total_msg_bytes        66072                       # Total number of bytes forwarded by this switch (Byte)
system.ruby.network.routers0.throttle00.total_data_msg_bytes        56128                       # Total number of data bytes forwarded by this switch (Byte)
system.ruby.network.routers0.throttle00.total_msg_wait_time            0                       # Total time spend forwarding messages (Tick)
system.ruby.network.routers0.throttle00.total_stall_cy            0                       # Total time spent blocked on any output link (Cycle)
system.ruby.network.routers0.throttle00.total_bw_sat_cy         3508                       # Total time bandwidth was saturated on any output link (Cycle)
system.ruby.network.routers0.throttle00.avg_msg_wait_time            0                       # Average time a message took to be forwarded (Ratio)
system.ruby.network.routers0.throttle00.avg_bandwidth         0.22                       # Average bandwidth (GB/s) (Ratio)
system.ruby.network.routers0.throttle00.avg_useful_bandwidth         0.19                       # Average useful (only data) bandwidth (GB/s) (Ratio)
system.ruby.network.routers0.throttle00.msg_count.Response_Data::4          877                       (Unspecified)
system.ruby.network.routers0.throttle00.msg_bytes.Response_Data::4        63144                       (Unspecified)
system.ruby.network.routers0.throttle00.msg_count.Writeback_Control::3          366                       (Unspecified)
system.ruby.network.routers0.throttle00.msg_bytes.Writeback_Control::3         2928                       (Unspecified)
system.ruby.network.routers0.throttle01.acc_link_utilization  2085.500000                       # Accumulated link utilization system.ruby.network.int_links0 (Count)
system.ruby.network.routers0.throttle01.link_utilization     0.371564                       # Average link utilization (Ratio)
system.ruby.network.routers0.throttle01.total_msg_count         1243                       # Total number of messages forwarded by this switch (Count)
system.ruby.network.routers0.throttle01.total_msg_bytes        33368                       # Total number of bytes forwarded by this switch (Byte)
system.ruby.network.routers0.throttle01.total_data_msg_bytes        23424                       # Total number of data bytes forwarded by this switch (Byte)
system.ruby.network.routers0.throttle01.total_msg_wait_time       732000                       # Total time spend forwarding messages (Tick)
system.ruby.network.routers0.throttle01.total_stall_cy            0                       # Total time spent blocked on any output link (Cycle)
system.ruby.network.routers0.throttle01.total_bw_sat_cy         1464                       # Total time bandwidth was saturated on any output link (Cycle)
system.ruby.network.routers0.throttle01.avg_msg_wait_time   588.897828                       # Average time a message took to be forwarded (Ratio)
system.ruby.network.routers0.throttle01.avg_bandwidth         0.11                       # Average bandwidth (GB/s) (Ratio)
system.ruby.network.routers0.throttle01.avg_useful_bandwidth         0.08                       # Average useful (only data) bandwidth (GB/s) (Ratio)
system.ruby.network.routers0.throttle01.msg_count.Control::2          877                       (Unspecified)
system.ruby.network.routers0.throttle01.msg_bytes.Control::2         7016                       (Unspecified)
system.ruby.network.routers0.throttle01.msg_count.Data::2          366                       (Unspecified)
system.ruby.network.routers0.throttle01.msg_bytes.Data::2        26352                       (Unspecified)
system.ruby.network.routers1.percent_links_utilized     0.553649                       (Unspecified)
system.ruby.network.routers1.msg_count.Control::2          877                       (Unspecified)
system.ruby.network.routers1.msg_bytes.Control::2         7016                       (Unspecified)
system.ruby.network.routers1.msg_count.Data::2          366                       (Unspecified)
system.ruby.network.routers1.msg_bytes.Data::2        26352                       (Unspecified)
system.ruby.network.routers1.msg_count.Response_Data::4          877                       (Unspecified)
system.ruby.network.routers1.msg_bytes.Response_Data::4        63144                       (Unspecified)
system.ruby.network.routers1.msg_count.Writeback_Control::3          366                       (Unspecified)
system.ruby.network.routers1.msg_bytes.Writeback_Control::3         2928                       (Unspecified)
system.ruby.network.routers1.port_buffers2.m_msg_count         1243                       # Number of messages passed the buffer (Count)
system.ruby.network.routers1.port_buffers2.m_buf_msgs     0.002215                       # Average number of messages in buffer ((Count/Tick))
system.ruby.network.routers1.port_buffers8.m_msg_count          366                       # Number of messages passed the buffer (Count)
system.ruby.network.routers1.port_buffers8.m_buf_msgs     0.000652                       # Average number of messages in buffer ((Count/Tick))
system.ruby.network.routers1.port_buffers9.m_msg_count          877                       # Number of messages passed the buffer (Count)
system.ruby.network.routers1.port_buffers9.m_buf_msgs     0.001563                       # Average number of messages in buffer ((Count/Tick))
system.ruby.network.routers1.power_state.pwrStateResidencyTicks::UNDEFINED    280638000                       # Cumulative time (in ticks) in various power states (Tick)
system.ruby.network.routers1.throttle00.acc_link_utilization  2085.500000                       # Accumulated link utilization system.ruby.network.ext_links1 (Count)
system.ruby.network.routers1.throttle00.link_utilization     0.371564                       # Average link utilization (Ratio)
system.ruby.network.routers1.throttle00.total_msg_count         1243                       # Total number of messages forwarded by this switch (Count)
system.ruby.network.routers1.throttle00.total_msg_bytes        33368                       # Total number of bytes forwarded by this switch (Byte)
system.ruby.network.routers1.throttle00.total_data_msg_bytes        23424                       # Total number of data bytes forwarded by this switch (Byte)
system.ruby.network.routers1.throttle00.total_msg_wait_time            0                       # Total time spend forwarding messages (Tick)
system.ruby.network.routers1.throttle00.total_stall_cy            0                       # Total time spent blocked on any output link (Cycle)
system.ruby.network.routers1.throttle00.total_bw_sat_cy         1464                       # Total time bandwidth was saturated on any output link (Cycle)
system.ruby.network.routers1.throttle00.avg_msg_wait_time            0                       # Average time a message took to be forwarded (Ratio)
system.ruby.network.routers1.throttle00.avg_bandwidth         0.11                       # Average bandwidth (GB/s) (Ratio)
system.ruby.network.routers1.throttle00.avg_useful_bandwidth         0.08                       # Average useful (only data) bandwidth (GB/s) (Ratio)
system.ruby.network.routers1.throttle00.msg_count.Control::2          877                       (Unspecified)
system.ruby.network.routers1.throttle00.msg_bytes.Control::2         7016                       (Unspecified)
system.ruby.network.routers1.throttle00.msg_count.Data::2          366                       (Unspecified)
system.ruby.network.routers1.throttle00.msg_bytes.Data::2        26352                       (Unspecified)
system.ruby.network.routers1.throttle01.acc_link_utilization  4129.500000                       # Accumulated link utilization system.ruby.network.int_links1 (Count)
system.ruby.network.routers1.throttle01.link_utilization     0.735734                       # Average link utilization (Ratio)
system.ruby.network.routers1.throttle01.total_msg_count         1243                       # Total number of messages forwarded by this switch (Count)
system.ruby.network.routers1.throttle01.total_msg_bytes        66072                       # Total number of bytes forwarded by this switch (Byte)
system.ruby.network.routers1.throttle01.total_data_msg_bytes        56128                       # Total number of data bytes forwarded by this switch (Byte)
system.ruby.network.routers1.throttle01.total_msg_wait_time            0                       # Total time spend forwarding messages (Tick)
system.ruby.network.routers1.throttle01.total_stall_cy            0                       # Total time spent blocked on any output link (Cycle)
system.ruby.network.routers1.throttle01.total_bw_sat_cy         3508                       # Total time bandwidth was saturated on any output link (Cycle)
system.ruby.network.routers1.throttle01.avg_msg_wait_time            0                       # Average time a message took to be forwarded (Ratio)
system.ruby.network.routers1.throttle01.avg_bandwidth         0.22                       # Average bandwidth (GB/s) (Ratio)
system.ruby.network.routers1.throttle01.avg_useful_bandwidth         0.19                       # Average useful (only data) bandwidth (GB/s) (Ratio)
system.ruby.network.routers1.throttle01.msg_count.Response_Data::4          877                       (Unspecified)
system.ruby.network.routers1.throttle01.msg_bytes.Response_Data::4        63144                       (Unspecified)
system.ruby.network.routers1.throttle01.msg_count.Writeback_Control::3          366                       (Unspecified)
system.ruby.network.routers1.throttle01.msg_bytes.Writeback_Control::3         2928                       (Unspecified)
system.ruby.network.routers2.percent_links_utilized     0.553649                       (Unspecified)
system.ruby.network.routers2.msg_count.Control::2          877                       (Unspecified)
system.ruby.network.routers2.msg_bytes.Control::2         7016                       (Unspecified)
system.ruby.network.routers2.msg_count.Data::2          366                       (Unspecified)
system.ruby.network.routers2.msg_bytes.Data::2        26352                       (Unspecified)
system.ruby.network.routers2.msg_count.Response_Data::4          877                       (Unspecified)
system.ruby.network.routers2.msg_bytes.Response_Data::4        63144                       (Unspecified)
system.ruby.network.routers2.msg_count.Writeback_Control::3          366                       (Unspecified)
system.ruby.network.routers2.msg_bytes.Writeback_Control::3         2928                       (Unspecified)
system.ruby.network.routers2.port_buffers3.m_msg_count          366                       # Number of messages passed the buffer (Count)
system.ruby.network.routers2.port_buffers3.m_buf_msgs     0.000652                       # Average number of messages in buffer ((Count/Tick))
system.ruby.network.routers2.port_buffers4.m_msg_count          877                       # Number of messages passed the buffer (Count)
system.ruby.network.routers2.port_buffers4.m_buf_msgs     0.001563                       # Average number of messages in buffer ((Count/Tick))
system.ruby.network.routers2.port_buffers7.m_msg_count         1243                       # Number of messages passed the buffer (Count)
system.ruby.network.routers2.port_buffers7.m_buf_msgs     0.002215                       # Average number of messages in buffer ((Count/Tick))
system.ruby.network.routers2.power_state.pwrStateResidencyTicks::UNDEFINED    280638000                       # Cumulative time (in ticks) in various power states (Tick)
system.ruby.network.routers2.throttle00.acc_link_utilization  4129.500000                       # Accumulated link utilization system.ruby.network.int_links2 (Count)
system.ruby.network.routers2.throttle00.link_utilization     0.735734                       # Average link utilization (Ratio)
system.ruby.network.routers2.throttle00.total_msg_count         1243                       # Total number of messages forwarded by this switch (Count)
system.ruby.network.routers2.throttle00.total_msg_bytes        66072                       # Total number of bytes forwarded by this switch (Byte)
system.ruby.network.routers2.throttle00.total_data_msg_bytes        56128                       # Total number of data bytes forwarded by this switch (Byte)
system.ruby.network.routers2.throttle00.total_msg_wait_time            0                       # Total time spend forwarding messages (Tick)
system.ruby.network.routers2.throttle00.total_stall_cy            0                       # Total time spent blocked on any output link (Cycle)
system.ruby.network.routers2.throttle00.total_bw_sat_cy         3508                       # Total time bandwidth was saturated on any output link (Cycle)
system.ruby.network.routers2.throttle00.avg_msg_wait_time            0                       # Average time a message took to be forwarded (Ratio)
system.ruby.network.routers2.throttle00.avg_bandwidth         0.22                       # Average bandwidth (GB/s) (Ratio)
system.ruby.network.routers2.throttle00.avg_useful_bandwidth         0.19                       # Average useful (only data) bandwidth (GB/s) (Ratio)
system.ruby.network.routers2.throttle00.msg_count.Response_Data::4          877                       (Unspecified)
system.ruby.network.routers2.throttle00.msg_bytes.Response_Data::4        63144                       (Unspecified)
system.ruby.network.routers2.throttle00.msg_count.Writeback_Control::3          366                       (Unspecified)
system.ruby.network.routers2.throttle00.msg_bytes.Writeback_Control::3         2928                       (Unspecified)
system.ruby.network.routers2.throttle01.acc_link_utilization  2085.500000                       # Accumulated link utilization system.ruby.network.int_links3 (Count)
system.ruby.network.routers2.throttle01.link_utilization     0.371564                       # Average link utilization (Ratio)
system.ruby.network.routers2.throttle01.total_msg_count         1243                       # Total number of messages forwarded by this switch (Count)
system.ruby.network.routers2.throttle01.total_msg_bytes        33368                       # Total number of bytes forwarded by this switch (Byte)
system.ruby.network.routers2.throttle01.total_data_msg_bytes        23424                       # Total number of data bytes forwarded by this switch (Byte)
system.ruby.network.routers2.throttle01.total_msg_wait_time            0                       # Total time spend forwarding messages (Tick)
system.ruby.network.routers2.throttle01.total_stall_cy            0                       # Total time spent blocked on any output link (Cycle)
system.ruby.network.routers2.throttle01.total_bw_sat_cy         1464                       # Total time bandwidth was saturated on any output link (Cycle)
system.ruby.network.routers2.throttle01.avg_msg_wait_time            0                       # Average time a message took to be forwarded (Ratio)
system.ruby.network.routers2.throttle01.avg_bandwidth         0.11                       # Average bandwidth (GB/s) (Ratio)
system.ruby.network.routers2.throttle01.avg_useful_bandwidth         0.08                       # Average useful (only data) bandwidth (GB/s) (Ratio)
system.ruby.network.routers2.throttle01.msg_count.Control::2          877                       (Unspecified)
system.ruby.network.routers2.throttle01.msg_bytes.Control::2         7016                       (Unspecified)
system.ruby.network.routers2.throttle01.msg_count.Data::2          366                       (Unspecified)
system.ruby.network.routers2.throttle01.msg_bytes.Data::2        26352                       (Unspecified)
system.ruby.power_state.pwrStateResidencyTicks::UNDEFINED    280638000                       # Cumulative time (in ticks) in various power states (Tick)
system.sys_port_proxy.power_state.pwrStateResidencyTicks::UNDEFINED    280638000                       # Cumulative time (in ticks) in various power states (Tick)
system.voltage_domain.voltage                       1                       # Voltage in Volts (Volt)
system.workload.inst.arm                            0                       # number of arm instructions executed (Count)
system.workload.inst.quiesce                        0                       # number of quiesce instructions executed (Count)

---------- End Simulation Statistics   ----------
