
---------- Begin Simulation Statistics ----------
simSeconds                                   0.000700                       # Number of seconds simulated (Second)
simTicks                                    699970500                       # Number of ticks simulated (Tick)
finalTick                                   699970500                       # Number of ticks from beginning of simulation (restored from checkpoints and never reset) (Tick)
simFreq                                  1000000000000                       # The number of ticks per simulated second ((Tick/Second))
hostSeconds                                      2.29                       # Real time elapsed on the host (Second)
hostTickRate                                305454691                       # The number of ticks simulated per host second (ticks/s) ((Tick/Second))
hostMemory                                    2619024                       # Number of bytes of host memory used (Byte)
simInsts                                       696735                       # Number of instructions simulated (Count)
simOps                                        1434927                       # Number of ops (including micro ops) simulated (Count)
hostInstRate                                   304019                       # Simulator instruction rate (inst/s) ((Count/Second))
hostOpRate                                     626127                       # Simulator op (including micro ops) rate (op/s) ((Count/Second))
system.clk_domain.clock                          1000                       # Clock period in ticks (Tick)
system.cpu0.numCycles                         1399941                       # Number of cpu cycles simulated (Cycle)
system.cpu0.cpi                              8.159638                       # CPI: cycles per instruction (core level) ((Cycle/Count))
system.cpu0.ipc                              0.122554                       # IPC: instructions per cycle (core level) ((Count/Cycle))
system.cpu0.numWorkItemsStarted                     0                       # Number of work items this cpu started (Count)
system.cpu0.numWorkItemsCompleted                   0                       # Number of work items this cpu completed (Count)
system.cpu0.commitStats0.numInsts              171569                       # Number of instructions committed (thread level) (Count)
system.cpu0.commitStats0.numOps                351915                       # Number of ops (including micro ops) committed (thread level) (Count)
system.cpu0.commitStats0.numInstsNotNOP             0                       # Number of instructions committed excluding NOPs or prefetches (Count)
system.cpu0.commitStats0.numOpsNotNOP               0                       # Number of Ops (including micro ops) Simulated (Count)
system.cpu0.commitStats0.cpi                 8.159638                       # CPI: cycles per instruction (thread level) ((Cycle/Count))
system.cpu0.commitStats0.ipc                 0.122554                       # IPC: instructions per cycle (thread level) ((Count/Cycle))
system.cpu0.commitStats0.numMemRefs                 0                       # Number of memory references committed (Count)
system.cpu0.commitStats0.numFpInsts              1354                       # Number of float instructions (Count)
system.cpu0.commitStats0.numIntInsts           351054                       # Number of integer instructions (Count)
system.cpu0.commitStats0.numLoadInsts           11953                       # Number of load instructions (Count)
system.cpu0.commitStats0.numStoreInsts          12550                       # Number of store instructions (Count)
system.cpu0.commitStats0.numVecInsts                0                       # Number of vector instructions (Count)
system.cpu0.commitStats0.committedInstType::No_OpClass          209      0.06%      0.06% # Class of committed instruction. (Count)
system.cpu0.commitStats0.committedInstType::IntAlu       326617     92.81%     92.87% # Class of committed instruction. (Count)
system.cpu0.commitStats0.committedInstType::IntMult           12      0.00%     92.87% # Class of committed instruction. (Count)
system.cpu0.commitStats0.committedInstType::IntDiv           21      0.01%     92.88% # Class of committed instruction. (Count)
system.cpu0.commitStats0.committedInstType::FloatAdd          172      0.05%     92.93% # Class of committed instruction. (Count)
system.cpu0.commitStats0.committedInstType::FloatCmp            0      0.00%     92.93% # Class of committed instruction. (Count)
system.cpu0.commitStats0.committedInstType::FloatCvt            0      0.00%     92.93% # Class of committed instruction. (Count)
system.cpu0.commitStats0.committedInstType::FloatMult            0      0.00%     92.93% # Class of committed instruction. (Count)
system.cpu0.commitStats0.committedInstType::FloatMultAcc            0      0.00%     92.93% # Class of committed instruction. (Count)
system.cpu0.commitStats0.committedInstType::FloatDiv            0      0.00%     92.93% # Class of committed instruction. (Count)
system.cpu0.commitStats0.committedInstType::FloatMisc            0      0.00%     92.93% # Class of committed instruction. (Count)
system.cpu0.commitStats0.committedInstType::FloatSqrt            0      0.00%     92.93% # Class of committed instruction. (Count)
system.cpu0.commitStats0.committedInstType::SimdAdd            8      0.00%     92.93% # Class of committed instruction. (Count)
system.cpu0.commitStats0.committedInstType::SimdAddAcc            0      0.00%     92.93% # Class of committed instruction. (Count)
system.cpu0.commitStats0.committedInstType::SimdAlu           96      0.03%     92.96% # Class of committed instruction. (Count)
system.cpu0.commitStats0.committedInstType::SimdCmp            0      0.00%     92.96% # Class of committed instruction. (Count)
system.cpu0.commitStats0.committedInstType::SimdCvt           48      0.01%     92.97% # Class of committed instruction. (Count)
system.cpu0.commitStats0.committedInstType::SimdMisc          229      0.07%     93.04% # Class of committed instruction. (Count)
system.cpu0.commitStats0.committedInstType::SimdMult            0      0.00%     93.04% # Class of committed instruction. (Count)
system.cpu0.commitStats0.committedInstType::SimdMultAcc            0      0.00%     93.04% # Class of committed instruction. (Count)
system.cpu0.commitStats0.committedInstType::SimdMatMultAcc            0      0.00%     93.04% # Class of committed instruction. (Count)
system.cpu0.commitStats0.committedInstType::SimdShift            0      0.00%     93.04% # Class of committed instruction. (Count)
system.cpu0.commitStats0.committedInstType::SimdShiftAcc            0      0.00%     93.04% # Class of committed instruction. (Count)
system.cpu0.commitStats0.committedInstType::SimdDiv            0      0.00%     93.04% # Class of committed instruction. (Count)
system.cpu0.commitStats0.committedInstType::SimdSqrt            0      0.00%     93.04% # Class of committed instruction. (Count)
system.cpu0.commitStats0.committedInstType::SimdFloatAdd            0      0.00%     93.04% # Class of committed instruction. (Count)
system.cpu0.commitStats0.committedInstType::SimdFloatAlu            0      0.00%     93.04% # Class of committed instruction. (Count)
system.cpu0.commitStats0.committedInstType::SimdFloatCmp            0      0.00%     93.04% # Class of committed instruction. (Count)
system.cpu0.commitStats0.committedInstType::SimdFloatCvt            0      0.00%     93.04% # Class of committed instruction. (Count)
system.cpu0.commitStats0.committedInstType::SimdFloatDiv            0      0.00%     93.04% # Class of committed instruction. (Count)
system.cpu0.commitStats0.committedInstType::SimdFloatMisc            0      0.00%     93.04% # Class of committed instruction. (Count)
system.cpu0.commitStats0.committedInstType::SimdFloatMult            0      0.00%     93.04% # Class of committed instruction. (Count)
system.cpu0.commitStats0.committedInstType::SimdFloatMultAcc            0      0.00%     93.04% # Class of committed instruction. (Count)
system.cpu0.commitStats0.committedInstType::SimdFloatMatMultAcc            0      0.00%     93.04% # Class of committed instruction. (Count)
system.cpu0.commitStats0.committedInstType::SimdFloatSqrt            0      0.00%     93.04% # Class of committed instruction. (Count)
system.cpu0.commitStats0.committedInstType::SimdReduceAdd            0      0.00%     93.04% # Class of committed instruction. (Count)
system.cpu0.commitStats0.committedInstType::SimdReduceAlu            0      0.00%     93.04% # Class of committed instruction. (Count)
system.cpu0.commitStats0.committedInstType::SimdReduceCmp            0      0.00%     93.04% # Class of committed instruction. (Count)
system.cpu0.commitStats0.committedInstType::SimdFloatReduceAdd            0      0.00%     93.04% # Class of committed instruction. (Count)
system.cpu0.commitStats0.committedInstType::SimdFloatReduceCmp            0      0.00%     93.04% # Class of committed instruction. (Count)
system.cpu0.commitStats0.committedInstType::SimdAes            0      0.00%     93.04% # Class of committed instruction. (Count)
system.cpu0.commitStats0.committedInstType::SimdAesMix            0      0.00%     93.04% # Class of committed instruction. (Count)
system.cpu0.commitStats0.committedInstType::SimdSha1Hash            0      0.00%     93.04% # Class of committed instruction. (Count)
system.cpu0.commitStats0.committedInstType::SimdSha1Hash2            0      0.00%     93.04% # Class of committed instruction. (Count)
system.cpu0.commitStats0.committedInstType::SimdSha256Hash            0      0.00%     93.04% # Class of committed instruction. (Count)
system.cpu0.commitStats0.committedInstType::SimdSha256Hash2            0      0.00%     93.04% # Class of committed instruction. (Count)
system.cpu0.commitStats0.committedInstType::SimdShaSigma2            0      0.00%     93.04% # Class of committed instruction. (Count)
system.cpu0.commitStats0.committedInstType::SimdShaSigma3            0      0.00%     93.04% # Class of committed instruction. (Count)
system.cpu0.commitStats0.committedInstType::SimdPredAlu            0      0.00%     93.04% # Class of committed instruction. (Count)
system.cpu0.commitStats0.committedInstType::Matrix            0      0.00%     93.04% # Class of committed instruction. (Count)
system.cpu0.commitStats0.committedInstType::MatrixMov            0      0.00%     93.04% # Class of committed instruction. (Count)
system.cpu0.commitStats0.committedInstType::MatrixOP            0      0.00%     93.04% # Class of committed instruction. (Count)
system.cpu0.commitStats0.committedInstType::MemRead        11832      3.36%     96.40% # Class of committed instruction. (Count)
system.cpu0.commitStats0.committedInstType::MemWrite        12027      3.42%     99.82% # Class of committed instruction. (Count)
system.cpu0.commitStats0.committedInstType::FloatMemRead          121      0.03%     99.85% # Class of committed instruction. (Count)
system.cpu0.commitStats0.committedInstType::FloatMemWrite          523      0.15%    100.00% # Class of committed instruction. (Count)
system.cpu0.commitStats0.committedInstType::IprAccess            0      0.00%    100.00% # Class of committed instruction. (Count)
system.cpu0.commitStats0.committedInstType::InstPrefetch            0      0.00%    100.00% # Class of committed instruction. (Count)
system.cpu0.commitStats0.committedInstType::SimdUnitStrideLoad            0      0.00%    100.00% # Class of committed instruction. (Count)
system.cpu0.commitStats0.committedInstType::SimdUnitStrideStore            0      0.00%    100.00% # Class of committed instruction. (Count)
system.cpu0.commitStats0.committedInstType::SimdUnitStrideMaskLoad            0      0.00%    100.00% # Class of committed instruction. (Count)
system.cpu0.commitStats0.committedInstType::SimdUnitStrideMaskStore            0      0.00%    100.00% # Class of committed instruction. (Count)
system.cpu0.commitStats0.committedInstType::SimdStridedLoad            0      0.00%    100.00% # Class of committed instruction. (Count)
system.cpu0.commitStats0.committedInstType::SimdStridedStore            0      0.00%    100.00% # Class of committed instruction. (Count)
system.cpu0.commitStats0.committedInstType::SimdIndexedLoad            0      0.00%    100.00% # Class of committed instruction. (Count)
system.cpu0.commitStats0.committedInstType::SimdIndexedStore            0      0.00%    100.00% # Class of committed instruction. (Count)
system.cpu0.commitStats0.committedInstType::SimdWholeRegisterLoad            0      0.00%    100.00% # Class of committed instruction. (Count)
system.cpu0.commitStats0.committedInstType::SimdWholeRegisterStore            0      0.00%    100.00% # Class of committed instruction. (Count)
system.cpu0.commitStats0.committedInstType::SimdUnitStrideFaultOnlyFirstLoad            0      0.00%    100.00% # Class of committed instruction. (Count)
system.cpu0.commitStats0.committedInstType::SimdUnitStrideSegmentedLoad            0      0.00%    100.00% # Class of committed instruction. (Count)
system.cpu0.commitStats0.committedInstType::SimdUnitStrideSegmentedStore            0      0.00%    100.00% # Class of committed instruction. (Count)
system.cpu0.commitStats0.committedInstType::SimdUnitStrideSegmentedFaultOnlyFirstLoad            0      0.00%    100.00% # Class of committed instruction. (Count)
system.cpu0.commitStats0.committedInstType::SimdStrideSegmentedLoad            0      0.00%    100.00% # Class of committed instruction. (Count)
system.cpu0.commitStats0.committedInstType::SimdStrideSegmentedStore            0      0.00%    100.00% # Class of committed instruction. (Count)
system.cpu0.commitStats0.committedInstType::SimdExt            0      0.00%    100.00% # Class of committed instruction. (Count)
system.cpu0.commitStats0.committedInstType::SimdFloatExt            0      0.00%    100.00% # Class of committed instruction. (Count)
system.cpu0.commitStats0.committedInstType::SimdConfig            0      0.00%    100.00% # Class of committed instruction. (Count)
system.cpu0.commitStats0.committedInstType::total       351915                       # Class of committed instruction. (Count)
system.cpu0.commitStats0.committedControl::IsControl        72167                       # Class of control type instructions committed (Count)
system.cpu0.commitStats0.committedControl::IsDirectControl        71919                       # Class of control type instructions committed (Count)
system.cpu0.commitStats0.committedControl::IsIndirectControl          248                       # Class of control type instructions committed (Count)
system.cpu0.commitStats0.committedControl::IsCondControl        51630                       # Class of control type instructions committed (Count)
system.cpu0.commitStats0.committedControl::IsUncondControl        20537                       # Class of control type instructions committed (Count)
system.cpu0.commitStats0.committedControl::IsCall          180                       # Class of control type instructions committed (Count)
system.cpu0.commitStats0.committedControl::IsReturn          175                       # Class of control type instructions committed (Count)
system.cpu0.exec_context.thread_0.numMatAluAccesses            0                       # Number of matrix alu accesses (Count)
system.cpu0.exec_context.thread_0.numCallsReturns          355                       # Number of times a function call or return occured (Count)
system.cpu0.exec_context.thread_0.numMatInsts            0                       # Number of matrix instructions (Count)
system.cpu0.exec_context.thread_0.numIdleCycles     0.002000                       # Number of idle cycles (Cycle)
system.cpu0.exec_context.thread_0.numBusyCycles 1399940.998000                       # Number of busy cycles (Cycle)
system.cpu0.exec_context.thread_0.notIdleFraction     1.000000                       # Percentage of non-idle cycles (Ratio)
system.cpu0.exec_context.thread_0.idleFraction     0.000000                       # Percentage of idle cycles (Ratio)
system.cpu0.executeStats0.numInsts                  0                       # Number of executed instructions (Count)
system.cpu0.executeStats0.numNop                    0                       # Number of nop insts executed (Count)
system.cpu0.executeStats0.numBranches               0                       # Number of branches executed (Count)
system.cpu0.executeStats0.numLoadInsts              0                       # Number of load instructions executed (Count)
system.cpu0.executeStats0.numStoreInsts         24503                       # Number of stores executed (Count)
system.cpu0.executeStats0.instRate                  0                       # Inst execution rate ((Count/Cycle))
system.cpu0.executeStats0.numFpAluAccesses         1354                       # Number of float alu accesses (Count)
system.cpu0.executeStats0.numFpRegReads          1462                       # Number of times the floating registers were read (Count)
system.cpu0.executeStats0.numFpRegWrites          785                       # Number of times the floating registers were written (Count)
system.cpu0.executeStats0.numIntAluAccesses       351054                       # Number of integer alu accesses (Count)
system.cpu0.executeStats0.numIntRegReads       323660                       # Number of times the integer registers were read (Count)
system.cpu0.executeStats0.numIntRegWrites       214736                       # Number of times the integer registers were written (Count)
system.cpu0.executeStats0.numMemRefs            24503                       # Number of memory refs (Count)
system.cpu0.executeStats0.numMiscRegReads       169052                       # Number of times the Misc registers were read (Count)
system.cpu0.executeStats0.numVecAluAccesses            0                       # Number of vector alu accesses (Count)
system.cpu0.executeStats0.numDiscardedOps            0                       # Number of ops (including micro ops) which were discarded before commit (Count)
system.cpu0.fetchStats0.numInsts               171569                       # Number of instructions fetched (thread level) (Count)
system.cpu0.fetchStats0.numOps                 351915                       # Number of ops (including micro ops) fetched (thread level) (Count)
system.cpu0.fetchStats0.fetchRate            0.122554                       # Number of inst fetches per cycle ((Count/Cycle))
system.cpu0.fetchStats0.numBranches             72167                       # Number of branches fetched (Count)
system.cpu0.fetchStats0.branchRate           0.051550                       # Number of branch fetches per cycle (Ratio)
system.cpu0.fetchStats0.numFetchSuspends            0                       # Number of times Execute suspended instruction fetching (Count)
system.cpu0.interrupts.clk_domain.clock          8000                       # Clock period in ticks (Tick)
system.cpu0.mmu.dtb.rdAccesses                  11957                       # TLB accesses on read requests (Count)
system.cpu0.mmu.dtb.wrAccesses                  12550                       # TLB accesses on write requests (Count)
system.cpu0.mmu.dtb.rdMisses                       15                       # TLB misses on read requests (Count)
system.cpu0.mmu.dtb.wrMisses                       11                       # TLB misses on write requests (Count)
system.cpu0.mmu.dtb.walker.power_state.pwrStateResidencyTicks::UNDEFINED    699970500                       # Cumulative time (in ticks) in various power states (Tick)
system.cpu0.mmu.itb.rdAccesses                      0                       # TLB accesses on read requests (Count)
system.cpu0.mmu.itb.wrAccesses                 235981                       # TLB accesses on write requests (Count)
system.cpu0.mmu.itb.rdMisses                        0                       # TLB misses on read requests (Count)
system.cpu0.mmu.itb.wrMisses                       47                       # TLB misses on write requests (Count)
system.cpu0.mmu.itb.walker.power_state.pwrStateResidencyTicks::UNDEFINED    699970500                       # Cumulative time (in ticks) in various power states (Tick)
system.cpu0.power_state.pwrStateResidencyTicks::ON    699970500                       # Cumulative time (in ticks) in various power states (Tick)
system.cpu0.thread_0.numInsts                       0                       # Number of Instructions committed (Count)
system.cpu0.thread_0.numOps                         0                       # Number of Ops committed (Count)
system.cpu0.thread_0.numMemRefs                     0                       # Number of Memory References (Count)
system.cpu0.workload.numSyscalls                   15                       # Number of system calls (Count)
system.cpu1.numCycles                         1399577                       # Number of cpu cycles simulated (Cycle)
system.cpu1.cpi                              7.996395                       # CPI: cycles per instruction (core level) ((Cycle/Count))
system.cpu1.ipc                              0.125056                       # IPC: instructions per cycle (core level) ((Count/Cycle))
system.cpu1.numWorkItemsStarted                     0                       # Number of work items this cpu started (Count)
system.cpu1.numWorkItemsCompleted                   0                       # Number of work items this cpu completed (Count)
system.cpu1.commitStats0.numInsts              175026                       # Number of instructions committed (thread level) (Count)
system.cpu1.commitStats0.numOps                360906                       # Number of ops (including micro ops) committed (thread level) (Count)
system.cpu1.commitStats0.numInstsNotNOP             0                       # Number of instructions committed excluding NOPs or prefetches (Count)
system.cpu1.commitStats0.numOpsNotNOP               0                       # Number of Ops (including micro ops) Simulated (Count)
system.cpu1.commitStats0.cpi                 7.996395                       # CPI: cycles per instruction (thread level) ((Cycle/Count))
system.cpu1.commitStats0.ipc                 0.125056                       # IPC: instructions per cycle (thread level) ((Count/Cycle))
system.cpu1.commitStats0.numMemRefs                 0                       # Number of memory references committed (Count)
system.cpu1.commitStats0.numFpInsts              1354                       # Number of float instructions (Count)
system.cpu1.commitStats0.numIntInsts           360046                       # Number of integer instructions (Count)
system.cpu1.commitStats0.numLoadInsts           13562                       # Number of load instructions (Count)
system.cpu1.commitStats0.numStoreInsts          11895                       # Number of store instructions (Count)
system.cpu1.commitStats0.numVecInsts                0                       # Number of vector instructions (Count)
system.cpu1.commitStats0.committedInstType::No_OpClass          209      0.06%      0.06% # Class of committed instruction. (Count)
system.cpu1.commitStats0.committedInstType::IntAlu       334654     92.73%     92.78% # Class of committed instruction. (Count)
system.cpu1.commitStats0.committedInstType::IntMult           12      0.00%     92.79% # Class of committed instruction. (Count)
system.cpu1.commitStats0.committedInstType::IntDiv           21      0.01%     92.79% # Class of committed instruction. (Count)
system.cpu1.commitStats0.committedInstType::FloatAdd          172      0.05%     92.84% # Class of committed instruction. (Count)
system.cpu1.commitStats0.committedInstType::FloatCmp            0      0.00%     92.84% # Class of committed instruction. (Count)
system.cpu1.commitStats0.committedInstType::FloatCvt            0      0.00%     92.84% # Class of committed instruction. (Count)
system.cpu1.commitStats0.committedInstType::FloatMult            0      0.00%     92.84% # Class of committed instruction. (Count)
system.cpu1.commitStats0.committedInstType::FloatMultAcc            0      0.00%     92.84% # Class of committed instruction. (Count)
system.cpu1.commitStats0.committedInstType::FloatDiv            0      0.00%     92.84% # Class of committed instruction. (Count)
system.cpu1.commitStats0.committedInstType::FloatMisc            0      0.00%     92.84% # Class of committed instruction. (Count)
system.cpu1.commitStats0.committedInstType::FloatSqrt            0      0.00%     92.84% # Class of committed instruction. (Count)
system.cpu1.commitStats0.committedInstType::SimdAdd            8      0.00%     92.84% # Class of committed instruction. (Count)
system.cpu1.commitStats0.committedInstType::SimdAddAcc            0      0.00%     92.84% # Class of committed instruction. (Count)
system.cpu1.commitStats0.committedInstType::SimdAlu           96      0.03%     92.87% # Class of committed instruction. (Count)
system.cpu1.commitStats0.committedInstType::SimdCmp            0      0.00%     92.87% # Class of committed instruction. (Count)
system.cpu1.commitStats0.committedInstType::SimdCvt           48      0.01%     92.88% # Class of committed instruction. (Count)
system.cpu1.commitStats0.committedInstType::SimdMisc          229      0.06%     92.95% # Class of committed instruction. (Count)
system.cpu1.commitStats0.committedInstType::SimdMult            0      0.00%     92.95% # Class of committed instruction. (Count)
system.cpu1.commitStats0.committedInstType::SimdMultAcc            0      0.00%     92.95% # Class of committed instruction. (Count)
system.cpu1.commitStats0.committedInstType::SimdMatMultAcc            0      0.00%     92.95% # Class of committed instruction. (Count)
system.cpu1.commitStats0.committedInstType::SimdShift            0      0.00%     92.95% # Class of committed instruction. (Count)
system.cpu1.commitStats0.committedInstType::SimdShiftAcc            0      0.00%     92.95% # Class of committed instruction. (Count)
system.cpu1.commitStats0.committedInstType::SimdDiv            0      0.00%     92.95% # Class of committed instruction. (Count)
system.cpu1.commitStats0.committedInstType::SimdSqrt            0      0.00%     92.95% # Class of committed instruction. (Count)
system.cpu1.commitStats0.committedInstType::SimdFloatAdd            0      0.00%     92.95% # Class of committed instruction. (Count)
system.cpu1.commitStats0.committedInstType::SimdFloatAlu            0      0.00%     92.95% # Class of committed instruction. (Count)
system.cpu1.commitStats0.committedInstType::SimdFloatCmp            0      0.00%     92.95% # Class of committed instruction. (Count)
system.cpu1.commitStats0.committedInstType::SimdFloatCvt            0      0.00%     92.95% # Class of committed instruction. (Count)
system.cpu1.commitStats0.committedInstType::SimdFloatDiv            0      0.00%     92.95% # Class of committed instruction. (Count)
system.cpu1.commitStats0.committedInstType::SimdFloatMisc            0      0.00%     92.95% # Class of committed instruction. (Count)
system.cpu1.commitStats0.committedInstType::SimdFloatMult            0      0.00%     92.95% # Class of committed instruction. (Count)
system.cpu1.commitStats0.committedInstType::SimdFloatMultAcc            0      0.00%     92.95% # Class of committed instruction. (Count)
system.cpu1.commitStats0.committedInstType::SimdFloatMatMultAcc            0      0.00%     92.95% # Class of committed instruction. (Count)
system.cpu1.commitStats0.committedInstType::SimdFloatSqrt            0      0.00%     92.95% # Class of committed instruction. (Count)
system.cpu1.commitStats0.committedInstType::SimdReduceAdd            0      0.00%     92.95% # Class of committed instruction. (Count)
system.cpu1.commitStats0.committedInstType::SimdReduceAlu            0      0.00%     92.95% # Class of committed instruction. (Count)
system.cpu1.commitStats0.committedInstType::SimdReduceCmp            0      0.00%     92.95% # Class of committed instruction. (Count)
system.cpu1.commitStats0.committedInstType::SimdFloatReduceAdd            0      0.00%     92.95% # Class of committed instruction. (Count)
system.cpu1.commitStats0.committedInstType::SimdFloatReduceCmp            0      0.00%     92.95% # Class of committed instruction. (Count)
system.cpu1.commitStats0.committedInstType::SimdAes            0      0.00%     92.95% # Class of committed instruction. (Count)
system.cpu1.commitStats0.committedInstType::SimdAesMix            0      0.00%     92.95% # Class of committed instruction. (Count)
system.cpu1.commitStats0.committedInstType::SimdSha1Hash            0      0.00%     92.95% # Class of committed instruction. (Count)
system.cpu1.commitStats0.committedInstType::SimdSha1Hash2            0      0.00%     92.95% # Class of committed instruction. (Count)
system.cpu1.commitStats0.committedInstType::SimdSha256Hash            0      0.00%     92.95% # Class of committed instruction. (Count)
system.cpu1.commitStats0.committedInstType::SimdSha256Hash2            0      0.00%     92.95% # Class of committed instruction. (Count)
system.cpu1.commitStats0.committedInstType::SimdShaSigma2            0      0.00%     92.95% # Class of committed instruction. (Count)
system.cpu1.commitStats0.committedInstType::SimdShaSigma3            0      0.00%     92.95% # Class of committed instruction. (Count)
system.cpu1.commitStats0.committedInstType::SimdPredAlu            0      0.00%     92.95% # Class of committed instruction. (Count)
system.cpu1.commitStats0.committedInstType::Matrix            0      0.00%     92.95% # Class of committed instruction. (Count)
system.cpu1.commitStats0.committedInstType::MatrixMov            0      0.00%     92.95% # Class of committed instruction. (Count)
system.cpu1.commitStats0.committedInstType::MatrixOP            0      0.00%     92.95% # Class of committed instruction. (Count)
system.cpu1.commitStats0.committedInstType::MemRead        13441      3.72%     96.67% # Class of committed instruction. (Count)
system.cpu1.commitStats0.committedInstType::MemWrite        11372      3.15%     99.82% # Class of committed instruction. (Count)
system.cpu1.commitStats0.committedInstType::FloatMemRead          121      0.03%     99.86% # Class of committed instruction. (Count)
system.cpu1.commitStats0.committedInstType::FloatMemWrite          523      0.14%    100.00% # Class of committed instruction. (Count)
system.cpu1.commitStats0.committedInstType::IprAccess            0      0.00%    100.00% # Class of committed instruction. (Count)
system.cpu1.commitStats0.committedInstType::InstPrefetch            0      0.00%    100.00% # Class of committed instruction. (Count)
system.cpu1.commitStats0.committedInstType::SimdUnitStrideLoad            0      0.00%    100.00% # Class of committed instruction. (Count)
system.cpu1.commitStats0.committedInstType::SimdUnitStrideStore            0      0.00%    100.00% # Class of committed instruction. (Count)
system.cpu1.commitStats0.committedInstType::SimdUnitStrideMaskLoad            0      0.00%    100.00% # Class of committed instruction. (Count)
system.cpu1.commitStats0.committedInstType::SimdUnitStrideMaskStore            0      0.00%    100.00% # Class of committed instruction. (Count)
system.cpu1.commitStats0.committedInstType::SimdStridedLoad            0      0.00%    100.00% # Class of committed instruction. (Count)
system.cpu1.commitStats0.committedInstType::SimdStridedStore            0      0.00%    100.00% # Class of committed instruction. (Count)
system.cpu1.commitStats0.committedInstType::SimdIndexedLoad            0      0.00%    100.00% # Class of committed instruction. (Count)
system.cpu1.commitStats0.committedInstType::SimdIndexedStore            0      0.00%    100.00% # Class of committed instruction. (Count)
system.cpu1.commitStats0.committedInstType::SimdWholeRegisterLoad            0      0.00%    100.00% # Class of committed instruction. (Count)
system.cpu1.commitStats0.committedInstType::SimdWholeRegisterStore            0      0.00%    100.00% # Class of committed instruction. (Count)
system.cpu1.commitStats0.committedInstType::SimdUnitStrideFaultOnlyFirstLoad            0      0.00%    100.00% # Class of committed instruction. (Count)
system.cpu1.commitStats0.committedInstType::SimdUnitStrideSegmentedLoad            0      0.00%    100.00% # Class of committed instruction. (Count)
system.cpu1.commitStats0.committedInstType::SimdUnitStrideSegmentedStore            0      0.00%    100.00% # Class of committed instruction. (Count)
system.cpu1.commitStats0.committedInstType::SimdUnitStrideSegmentedFaultOnlyFirstLoad            0      0.00%    100.00% # Class of committed instruction. (Count)
system.cpu1.commitStats0.committedInstType::SimdStrideSegmentedLoad            0      0.00%    100.00% # Class of committed instruction. (Count)
system.cpu1.commitStats0.committedInstType::SimdStrideSegmentedStore            0      0.00%    100.00% # Class of committed instruction. (Count)
system.cpu1.commitStats0.committedInstType::SimdExt            0      0.00%    100.00% # Class of committed instruction. (Count)
system.cpu1.commitStats0.committedInstType::SimdFloatExt            0      0.00%    100.00% # Class of committed instruction. (Count)
system.cpu1.commitStats0.committedInstType::SimdConfig            0      0.00%    100.00% # Class of committed instruction. (Count)
system.cpu1.commitStats0.committedInstType::total       360906                       # Class of committed instruction. (Count)
system.cpu1.commitStats0.committedControl::IsControl        73731                       # Class of control type instructions committed (Count)
system.cpu1.commitStats0.committedControl::IsDirectControl        73483                       # Class of control type instructions committed (Count)
system.cpu1.commitStats0.committedControl::IsIndirectControl          248                       # Class of control type instructions committed (Count)
system.cpu1.commitStats0.committedControl::IsCondControl        53195                       # Class of control type instructions committed (Count)
system.cpu1.commitStats0.committedControl::IsUncondControl        20536                       # Class of control type instructions committed (Count)
system.cpu1.commitStats0.committedControl::IsCall          180                       # Class of control type instructions committed (Count)
system.cpu1.commitStats0.committedControl::IsReturn          175                       # Class of control type instructions committed (Count)
system.cpu1.exec_context.thread_0.numMatAluAccesses            0                       # Number of matrix alu accesses (Count)
system.cpu1.exec_context.thread_0.numCallsReturns          355                       # Number of times a function call or return occured (Count)
system.cpu1.exec_context.thread_0.numMatInsts            0                       # Number of matrix instructions (Count)
system.cpu1.exec_context.thread_0.numIdleCycles   363.907355                       # Number of idle cycles (Cycle)
system.cpu1.exec_context.thread_0.numBusyCycles 1399213.092645                       # Number of busy cycles (Cycle)
system.cpu1.exec_context.thread_0.notIdleFraction     0.999740                       # Percentage of non-idle cycles (Ratio)
system.cpu1.exec_context.thread_0.idleFraction     0.000260                       # Percentage of idle cycles (Ratio)
system.cpu1.executeStats0.numInsts                  0                       # Number of executed instructions (Count)
system.cpu1.executeStats0.numNop                    0                       # Number of nop insts executed (Count)
system.cpu1.executeStats0.numBranches               0                       # Number of branches executed (Count)
system.cpu1.executeStats0.numLoadInsts              0                       # Number of load instructions executed (Count)
system.cpu1.executeStats0.numStoreInsts         25457                       # Number of stores executed (Count)
system.cpu1.executeStats0.instRate                  0                       # Inst execution rate ((Count/Cycle))
system.cpu1.executeStats0.numFpAluAccesses         1354                       # Number of float alu accesses (Count)
system.cpu1.executeStats0.numFpRegReads          1462                       # Number of times the floating registers were read (Count)
system.cpu1.executeStats0.numFpRegWrites          785                       # Number of times the floating registers were written (Count)
system.cpu1.executeStats0.numIntAluAccesses       360046                       # Number of integer alu accesses (Count)
system.cpu1.executeStats0.numIntRegReads       328935                       # Number of times the integer registers were read (Count)
system.cpu1.executeStats0.numIntRegWrites       221255                       # Number of times the integer registers were written (Count)
system.cpu1.executeStats0.numMemRefs            25457                       # Number of memory refs (Count)
system.cpu1.executeStats0.numMiscRegReads       173134                       # Number of times the Misc registers were read (Count)
system.cpu1.executeStats0.numVecAluAccesses            0                       # Number of vector alu accesses (Count)
system.cpu1.executeStats0.numDiscardedOps            0                       # Number of ops (including micro ops) which were discarded before commit (Count)
system.cpu1.fetchStats0.numInsts               175026                       # Number of instructions fetched (thread level) (Count)
system.cpu1.fetchStats0.numOps                 360906                       # Number of ops (including micro ops) fetched (thread level) (Count)
system.cpu1.fetchStats0.fetchRate            0.125056                       # Number of inst fetches per cycle ((Count/Cycle))
system.cpu1.fetchStats0.numBranches             73731                       # Number of branches fetched (Count)
system.cpu1.fetchStats0.branchRate           0.052681                       # Number of branch fetches per cycle (Ratio)
system.cpu1.fetchStats0.numFetchSuspends            0                       # Number of times Execute suspended instruction fetching (Count)
system.cpu1.interrupts.clk_domain.clock          8000                       # Clock period in ticks (Tick)
system.cpu1.mmu.dtb.rdAccesses                  13566                       # TLB accesses on read requests (Count)
system.cpu1.mmu.dtb.wrAccesses                  11895                       # TLB accesses on write requests (Count)
system.cpu1.mmu.dtb.rdMisses                       17                       # TLB misses on read requests (Count)
system.cpu1.mmu.dtb.wrMisses                        9                       # TLB misses on write requests (Count)
system.cpu1.mmu.dtb.walker.power_state.pwrStateResidencyTicks::UNDEFINED    699970500                       # Cumulative time (in ticks) in various power states (Tick)
system.cpu1.mmu.itb.rdAccesses                      0                       # TLB accesses on read requests (Count)
system.cpu1.mmu.itb.wrAccesses                 240024                       # TLB accesses on write requests (Count)
system.cpu1.mmu.itb.rdMisses                        0                       # TLB misses on read requests (Count)
system.cpu1.mmu.itb.wrMisses                       47                       # TLB misses on write requests (Count)
system.cpu1.mmu.itb.walker.power_state.pwrStateResidencyTicks::UNDEFINED    699970500                       # Cumulative time (in ticks) in various power states (Tick)
system.cpu1.power_state.pwrStateResidencyTicks::ON    699970500                       # Cumulative time (in ticks) in various power states (Tick)
system.cpu1.thread_0.numInsts                       0                       # Number of Instructions committed (Count)
system.cpu1.thread_0.numOps                         0                       # Number of Ops committed (Count)
system.cpu1.thread_0.numMemRefs                     0                       # Number of Memory References (Count)
system.cpu1.workload.numSyscalls                   15                       # Number of system calls (Count)
system.cpu2.numCycles                         1399631                       # Number of cpu cycles simulated (Cycle)
system.cpu2.cpi                              7.992046                       # CPI: cycles per instruction (core level) ((Cycle/Count))
system.cpu2.ipc                              0.125124                       # IPC: instructions per cycle (core level) ((Count/Cycle))
system.cpu2.numWorkItemsStarted                     0                       # Number of work items this cpu started (Count)
system.cpu2.numWorkItemsCompleted                   0                       # Number of work items this cpu completed (Count)
system.cpu2.commitStats0.numInsts              175128                       # Number of instructions committed (thread level) (Count)
system.cpu2.commitStats0.numOps                361146                       # Number of ops (including micro ops) committed (thread level) (Count)
system.cpu2.commitStats0.numInstsNotNOP             0                       # Number of instructions committed excluding NOPs or prefetches (Count)
system.cpu2.commitStats0.numOpsNotNOP               0                       # Number of Ops (including micro ops) Simulated (Count)
system.cpu2.commitStats0.cpi                 7.992046                       # CPI: cycles per instruction (thread level) ((Cycle/Count))
system.cpu2.commitStats0.ipc                 0.125124                       # IPC: instructions per cycle (thread level) ((Count/Cycle))
system.cpu2.commitStats0.numMemRefs                 0                       # Number of memory references committed (Count)
system.cpu2.commitStats0.numFpInsts              1354                       # Number of float instructions (Count)
system.cpu2.commitStats0.numIntInsts           360285                       # Number of integer instructions (Count)
system.cpu2.commitStats0.numLoadInsts           13607                       # Number of load instructions (Count)
system.cpu2.commitStats0.numStoreInsts          11893                       # Number of store instructions (Count)
system.cpu2.commitStats0.numVecInsts                0                       # Number of vector instructions (Count)
system.cpu2.commitStats0.committedInstType::No_OpClass          210      0.06%      0.06% # Class of committed instruction. (Count)
system.cpu2.commitStats0.committedInstType::IntAlu       334850     92.72%     92.78% # Class of committed instruction. (Count)
system.cpu2.commitStats0.committedInstType::IntMult           12      0.00%     92.78% # Class of committed instruction. (Count)
system.cpu2.commitStats0.committedInstType::IntDiv           21      0.01%     92.79% # Class of committed instruction. (Count)
system.cpu2.commitStats0.committedInstType::FloatAdd          172      0.05%     92.83% # Class of committed instruction. (Count)
system.cpu2.commitStats0.committedInstType::FloatCmp            0      0.00%     92.83% # Class of committed instruction. (Count)
system.cpu2.commitStats0.committedInstType::FloatCvt            0      0.00%     92.83% # Class of committed instruction. (Count)
system.cpu2.commitStats0.committedInstType::FloatMult            0      0.00%     92.83% # Class of committed instruction. (Count)
system.cpu2.commitStats0.committedInstType::FloatMultAcc            0      0.00%     92.83% # Class of committed instruction. (Count)
system.cpu2.commitStats0.committedInstType::FloatDiv            0      0.00%     92.83% # Class of committed instruction. (Count)
system.cpu2.commitStats0.committedInstType::FloatMisc            0      0.00%     92.83% # Class of committed instruction. (Count)
system.cpu2.commitStats0.committedInstType::FloatSqrt            0      0.00%     92.83% # Class of committed instruction. (Count)
system.cpu2.commitStats0.committedInstType::SimdAdd            8      0.00%     92.84% # Class of committed instruction. (Count)
system.cpu2.commitStats0.committedInstType::SimdAddAcc            0      0.00%     92.84% # Class of committed instruction. (Count)
system.cpu2.commitStats0.committedInstType::SimdAlu           96      0.03%     92.86% # Class of committed instruction. (Count)
system.cpu2.commitStats0.committedInstType::SimdCmp            0      0.00%     92.86% # Class of committed instruction. (Count)
system.cpu2.commitStats0.committedInstType::SimdCvt           48      0.01%     92.88% # Class of committed instruction. (Count)
system.cpu2.commitStats0.committedInstType::SimdMisc          229      0.06%     92.94% # Class of committed instruction. (Count)
system.cpu2.commitStats0.committedInstType::SimdMult            0      0.00%     92.94% # Class of committed instruction. (Count)
system.cpu2.commitStats0.committedInstType::SimdMultAcc            0      0.00%     92.94% # Class of committed instruction. (Count)
system.cpu2.commitStats0.committedInstType::SimdMatMultAcc            0      0.00%     92.94% # Class of committed instruction. (Count)
system.cpu2.commitStats0.committedInstType::SimdShift            0      0.00%     92.94% # Class of committed instruction. (Count)
system.cpu2.commitStats0.committedInstType::SimdShiftAcc            0      0.00%     92.94% # Class of committed instruction. (Count)
system.cpu2.commitStats0.committedInstType::SimdDiv            0      0.00%     92.94% # Class of committed instruction. (Count)
system.cpu2.commitStats0.committedInstType::SimdSqrt            0      0.00%     92.94% # Class of committed instruction. (Count)
system.cpu2.commitStats0.committedInstType::SimdFloatAdd            0      0.00%     92.94% # Class of committed instruction. (Count)
system.cpu2.commitStats0.committedInstType::SimdFloatAlu            0      0.00%     92.94% # Class of committed instruction. (Count)
system.cpu2.commitStats0.committedInstType::SimdFloatCmp            0      0.00%     92.94% # Class of committed instruction. (Count)
system.cpu2.commitStats0.committedInstType::SimdFloatCvt            0      0.00%     92.94% # Class of committed instruction. (Count)
system.cpu2.commitStats0.committedInstType::SimdFloatDiv            0      0.00%     92.94% # Class of committed instruction. (Count)
system.cpu2.commitStats0.committedInstType::SimdFloatMisc            0      0.00%     92.94% # Class of committed instruction. (Count)
system.cpu2.commitStats0.committedInstType::SimdFloatMult            0      0.00%     92.94% # Class of committed instruction. (Count)
system.cpu2.commitStats0.committedInstType::SimdFloatMultAcc            0      0.00%     92.94% # Class of committed instruction. (Count)
system.cpu2.commitStats0.committedInstType::SimdFloatMatMultAcc            0      0.00%     92.94% # Class of committed instruction. (Count)
system.cpu2.commitStats0.committedInstType::SimdFloatSqrt            0      0.00%     92.94% # Class of committed instruction. (Count)
system.cpu2.commitStats0.committedInstType::SimdReduceAdd            0      0.00%     92.94% # Class of committed instruction. (Count)
system.cpu2.commitStats0.committedInstType::SimdReduceAlu            0      0.00%     92.94% # Class of committed instruction. (Count)
system.cpu2.commitStats0.committedInstType::SimdReduceCmp            0      0.00%     92.94% # Class of committed instruction. (Count)
system.cpu2.commitStats0.committedInstType::SimdFloatReduceAdd            0      0.00%     92.94% # Class of committed instruction. (Count)
system.cpu2.commitStats0.committedInstType::SimdFloatReduceCmp            0      0.00%     92.94% # Class of committed instruction. (Count)
system.cpu2.commitStats0.committedInstType::SimdAes            0      0.00%     92.94% # Class of committed instruction. (Count)
system.cpu2.commitStats0.committedInstType::SimdAesMix            0      0.00%     92.94% # Class of committed instruction. (Count)
system.cpu2.commitStats0.committedInstType::SimdSha1Hash            0      0.00%     92.94% # Class of committed instruction. (Count)
system.cpu2.commitStats0.committedInstType::SimdSha1Hash2            0      0.00%     92.94% # Class of committed instruction. (Count)
system.cpu2.commitStats0.committedInstType::SimdSha256Hash            0      0.00%     92.94% # Class of committed instruction. (Count)
system.cpu2.commitStats0.committedInstType::SimdSha256Hash2            0      0.00%     92.94% # Class of committed instruction. (Count)
system.cpu2.commitStats0.committedInstType::SimdShaSigma2            0      0.00%     92.94% # Class of committed instruction. (Count)
system.cpu2.commitStats0.committedInstType::SimdShaSigma3            0      0.00%     92.94% # Class of committed instruction. (Count)
system.cpu2.commitStats0.committedInstType::SimdPredAlu            0      0.00%     92.94% # Class of committed instruction. (Count)
system.cpu2.commitStats0.committedInstType::Matrix            0      0.00%     92.94% # Class of committed instruction. (Count)
system.cpu2.commitStats0.committedInstType::MatrixMov            0      0.00%     92.94% # Class of committed instruction. (Count)
system.cpu2.commitStats0.committedInstType::MatrixOP            0      0.00%     92.94% # Class of committed instruction. (Count)
system.cpu2.commitStats0.committedInstType::MemRead        13486      3.73%     96.67% # Class of committed instruction. (Count)
system.cpu2.commitStats0.committedInstType::MemWrite        11370      3.15%     99.82% # Class of committed instruction. (Count)
system.cpu2.commitStats0.committedInstType::FloatMemRead          121      0.03%     99.86% # Class of committed instruction. (Count)
system.cpu2.commitStats0.committedInstType::FloatMemWrite          523      0.14%    100.00% # Class of committed instruction. (Count)
system.cpu2.commitStats0.committedInstType::IprAccess            0      0.00%    100.00% # Class of committed instruction. (Count)
system.cpu2.commitStats0.committedInstType::InstPrefetch            0      0.00%    100.00% # Class of committed instruction. (Count)
system.cpu2.commitStats0.committedInstType::SimdUnitStrideLoad            0      0.00%    100.00% # Class of committed instruction. (Count)
system.cpu2.commitStats0.committedInstType::SimdUnitStrideStore            0      0.00%    100.00% # Class of committed instruction. (Count)
system.cpu2.commitStats0.committedInstType::SimdUnitStrideMaskLoad            0      0.00%    100.00% # Class of committed instruction. (Count)
system.cpu2.commitStats0.committedInstType::SimdUnitStrideMaskStore            0      0.00%    100.00% # Class of committed instruction. (Count)
system.cpu2.commitStats0.committedInstType::SimdStridedLoad            0      0.00%    100.00% # Class of committed instruction. (Count)
system.cpu2.commitStats0.committedInstType::SimdStridedStore            0      0.00%    100.00% # Class of committed instruction. (Count)
system.cpu2.commitStats0.committedInstType::SimdIndexedLoad            0      0.00%    100.00% # Class of committed instruction. (Count)
system.cpu2.commitStats0.committedInstType::SimdIndexedStore            0      0.00%    100.00% # Class of committed instruction. (Count)
system.cpu2.commitStats0.committedInstType::SimdWholeRegisterLoad            0      0.00%    100.00% # Class of committed instruction. (Count)
system.cpu2.commitStats0.committedInstType::SimdWholeRegisterStore            0      0.00%    100.00% # Class of committed instruction. (Count)
system.cpu2.commitStats0.committedInstType::SimdUnitStrideFaultOnlyFirstLoad            0      0.00%    100.00% # Class of committed instruction. (Count)
system.cpu2.commitStats0.committedInstType::SimdUnitStrideSegmentedLoad            0      0.00%    100.00% # Class of committed instruction. (Count)
system.cpu2.commitStats0.committedInstType::SimdUnitStrideSegmentedStore            0      0.00%    100.00% # Class of committed instruction. (Count)
system.cpu2.commitStats0.committedInstType::SimdUnitStrideSegmentedFaultOnlyFirstLoad            0      0.00%    100.00% # Class of committed instruction. (Count)
system.cpu2.commitStats0.committedInstType::SimdStrideSegmentedLoad            0      0.00%    100.00% # Class of committed instruction. (Count)
system.cpu2.commitStats0.committedInstType::SimdStrideSegmentedStore            0      0.00%    100.00% # Class of committed instruction. (Count)
system.cpu2.commitStats0.committedInstType::SimdExt            0      0.00%    100.00% # Class of committed instruction. (Count)
system.cpu2.commitStats0.committedInstType::SimdFloatExt            0      0.00%    100.00% # Class of committed instruction. (Count)
system.cpu2.commitStats0.committedInstType::SimdConfig            0      0.00%    100.00% # Class of committed instruction. (Count)
system.cpu2.commitStats0.committedInstType::total       361146                       # Class of committed instruction. (Count)
system.cpu2.commitStats0.committedControl::IsControl        73766                       # Class of control type instructions committed (Count)
system.cpu2.commitStats0.committedControl::IsDirectControl        73518                       # Class of control type instructions committed (Count)
system.cpu2.commitStats0.committedControl::IsIndirectControl          248                       # Class of control type instructions committed (Count)
system.cpu2.commitStats0.committedControl::IsCondControl        53230                       # Class of control type instructions committed (Count)
system.cpu2.commitStats0.committedControl::IsUncondControl        20536                       # Class of control type instructions committed (Count)
system.cpu2.commitStats0.committedControl::IsCall          180                       # Class of control type instructions committed (Count)
system.cpu2.commitStats0.committedControl::IsReturn          175                       # Class of control type instructions committed (Count)
system.cpu2.exec_context.thread_0.numMatAluAccesses            0                       # Number of matrix alu accesses (Count)
system.cpu2.exec_context.thread_0.numCallsReturns          355                       # Number of times a function call or return occured (Count)
system.cpu2.exec_context.thread_0.numMatInsts            0                       # Number of matrix instructions (Count)
system.cpu2.exec_context.thread_0.numIdleCycles   309.933353                       # Number of idle cycles (Cycle)
system.cpu2.exec_context.thread_0.numBusyCycles 1399321.066647                       # Number of busy cycles (Cycle)
system.cpu2.exec_context.thread_0.notIdleFraction     0.999779                       # Percentage of non-idle cycles (Ratio)
system.cpu2.exec_context.thread_0.idleFraction     0.000221                       # Percentage of idle cycles (Ratio)
system.cpu2.executeStats0.numInsts                  0                       # Number of executed instructions (Count)
system.cpu2.executeStats0.numNop                    0                       # Number of nop insts executed (Count)
system.cpu2.executeStats0.numBranches               0                       # Number of branches executed (Count)
system.cpu2.executeStats0.numLoadInsts              0                       # Number of load instructions executed (Count)
system.cpu2.executeStats0.numStoreInsts         25500                       # Number of stores executed (Count)
system.cpu2.executeStats0.instRate                  0                       # Inst execution rate ((Count/Cycle))
system.cpu2.executeStats0.numFpAluAccesses         1354                       # Number of float alu accesses (Count)
system.cpu2.executeStats0.numFpRegReads          1462                       # Number of times the floating registers were read (Count)
system.cpu2.executeStats0.numFpRegWrites          785                       # Number of times the floating registers were written (Count)
system.cpu2.executeStats0.numIntAluAccesses       360285                       # Number of integer alu accesses (Count)
system.cpu2.executeStats0.numIntRegReads       329116                       # Number of times the integer registers were read (Count)
system.cpu2.executeStats0.numIntRegWrites       221426                       # Number of times the integer registers were written (Count)
system.cpu2.executeStats0.numMemRefs            25500                       # Number of memory refs (Count)
system.cpu2.executeStats0.numMiscRegReads       173247                       # Number of times the Misc registers were read (Count)
system.cpu2.executeStats0.numVecAluAccesses            0                       # Number of vector alu accesses (Count)
system.cpu2.executeStats0.numDiscardedOps            0                       # Number of ops (including micro ops) which were discarded before commit (Count)
system.cpu2.fetchStats0.numInsts               175128                       # Number of instructions fetched (thread level) (Count)
system.cpu2.fetchStats0.numOps                 361146                       # Number of ops (including micro ops) fetched (thread level) (Count)
system.cpu2.fetchStats0.fetchRate            0.125124                       # Number of inst fetches per cycle ((Count/Cycle))
system.cpu2.fetchStats0.numBranches             73766                       # Number of branches fetched (Count)
system.cpu2.fetchStats0.branchRate           0.052704                       # Number of branch fetches per cycle (Ratio)
system.cpu2.fetchStats0.numFetchSuspends            0                       # Number of times Execute suspended instruction fetching (Count)
system.cpu2.interrupts.clk_domain.clock          8000                       # Clock period in ticks (Tick)
system.cpu2.mmu.dtb.rdAccesses                  13611                       # TLB accesses on read requests (Count)
system.cpu2.mmu.dtb.wrAccesses                  11893                       # TLB accesses on write requests (Count)
system.cpu2.mmu.dtb.rdMisses                       17                       # TLB misses on read requests (Count)
system.cpu2.mmu.dtb.wrMisses                        9                       # TLB misses on write requests (Count)
system.cpu2.mmu.dtb.walker.power_state.pwrStateResidencyTicks::UNDEFINED    699970500                       # Cumulative time (in ticks) in various power states (Tick)
system.cpu2.mmu.itb.rdAccesses                      0                       # TLB accesses on read requests (Count)
system.cpu2.mmu.itb.wrAccesses                 240160                       # TLB accesses on write requests (Count)
system.cpu2.mmu.itb.rdMisses                        0                       # TLB misses on read requests (Count)
system.cpu2.mmu.itb.wrMisses                       47                       # TLB misses on write requests (Count)
system.cpu2.mmu.itb.walker.power_state.pwrStateResidencyTicks::UNDEFINED    699970500                       # Cumulative time (in ticks) in various power states (Tick)
system.cpu2.power_state.pwrStateResidencyTicks::ON    699970500                       # Cumulative time (in ticks) in various power states (Tick)
system.cpu2.thread_0.numInsts                       0                       # Number of Instructions committed (Count)
system.cpu2.thread_0.numOps                         0                       # Number of Ops committed (Count)
system.cpu2.thread_0.numMemRefs                     0                       # Number of Memory References (Count)
system.cpu2.workload.numSyscalls                   15                       # Number of system calls (Count)
system.cpu3.numCycles                         1399524                       # Number of cpu cycles simulated (Cycle)
system.cpu3.cpi                              7.993626                       # CPI: cycles per instruction (core level) ((Cycle/Count))
system.cpu3.ipc                              0.125100                       # IPC: instructions per cycle (core level) ((Count/Cycle))
system.cpu3.numWorkItemsStarted                     0                       # Number of work items this cpu started (Count)
system.cpu3.numWorkItemsCompleted                   0                       # Number of work items this cpu completed (Count)
system.cpu3.commitStats0.numInsts              175080                       # Number of instructions committed (thread level) (Count)
system.cpu3.commitStats0.numOps                361032                       # Number of ops (including micro ops) committed (thread level) (Count)
system.cpu3.commitStats0.numInstsNotNOP             0                       # Number of instructions committed excluding NOPs or prefetches (Count)
system.cpu3.commitStats0.numOpsNotNOP               0                       # Number of Ops (including micro ops) Simulated (Count)
system.cpu3.commitStats0.cpi                 7.993626                       # CPI: cycles per instruction (thread level) ((Cycle/Count))
system.cpu3.commitStats0.ipc                 0.125100                       # IPC: instructions per cycle (thread level) ((Count/Cycle))
system.cpu3.commitStats0.numMemRefs                 0                       # Number of memory references committed (Count)
system.cpu3.commitStats0.numFpInsts              1354                       # Number of float instructions (Count)
system.cpu3.commitStats0.numIntInsts           360172                       # Number of integer instructions (Count)
system.cpu3.commitStats0.numLoadInsts           13579                       # Number of load instructions (Count)
system.cpu3.commitStats0.numStoreInsts          11895                       # Number of store instructions (Count)
system.cpu3.commitStats0.numVecInsts                0                       # Number of vector instructions (Count)
system.cpu3.commitStats0.committedInstType::No_OpClass          209      0.06%      0.06% # Class of committed instruction. (Count)
system.cpu3.commitStats0.committedInstType::IntAlu       334763     92.72%     92.78% # Class of committed instruction. (Count)
system.cpu3.commitStats0.committedInstType::IntMult           12      0.00%     92.79% # Class of committed instruction. (Count)
system.cpu3.commitStats0.committedInstType::IntDiv           21      0.01%     92.79% # Class of committed instruction. (Count)
system.cpu3.commitStats0.committedInstType::FloatAdd          172      0.05%     92.84% # Class of committed instruction. (Count)
system.cpu3.commitStats0.committedInstType::FloatCmp            0      0.00%     92.84% # Class of committed instruction. (Count)
system.cpu3.commitStats0.committedInstType::FloatCvt            0      0.00%     92.84% # Class of committed instruction. (Count)
system.cpu3.commitStats0.committedInstType::FloatMult            0      0.00%     92.84% # Class of committed instruction. (Count)
system.cpu3.commitStats0.committedInstType::FloatMultAcc            0      0.00%     92.84% # Class of committed instruction. (Count)
system.cpu3.commitStats0.committedInstType::FloatDiv            0      0.00%     92.84% # Class of committed instruction. (Count)
system.cpu3.commitStats0.committedInstType::FloatMisc            0      0.00%     92.84% # Class of committed instruction. (Count)
system.cpu3.commitStats0.committedInstType::FloatSqrt            0      0.00%     92.84% # Class of committed instruction. (Count)
system.cpu3.commitStats0.committedInstType::SimdAdd            8      0.00%     92.84% # Class of committed instruction. (Count)
system.cpu3.commitStats0.committedInstType::SimdAddAcc            0      0.00%     92.84% # Class of committed instruction. (Count)
system.cpu3.commitStats0.committedInstType::SimdAlu           96      0.03%     92.87% # Class of committed instruction. (Count)
system.cpu3.commitStats0.committedInstType::SimdCmp            0      0.00%     92.87% # Class of committed instruction. (Count)
system.cpu3.commitStats0.committedInstType::SimdCvt           48      0.01%     92.88% # Class of committed instruction. (Count)
system.cpu3.commitStats0.committedInstType::SimdMisc          229      0.06%     92.94% # Class of committed instruction. (Count)
system.cpu3.commitStats0.committedInstType::SimdMult            0      0.00%     92.94% # Class of committed instruction. (Count)
system.cpu3.commitStats0.committedInstType::SimdMultAcc            0      0.00%     92.94% # Class of committed instruction. (Count)
system.cpu3.commitStats0.committedInstType::SimdMatMultAcc            0      0.00%     92.94% # Class of committed instruction. (Count)
system.cpu3.commitStats0.committedInstType::SimdShift            0      0.00%     92.94% # Class of committed instruction. (Count)
system.cpu3.commitStats0.committedInstType::SimdShiftAcc            0      0.00%     92.94% # Class of committed instruction. (Count)
system.cpu3.commitStats0.committedInstType::SimdDiv            0      0.00%     92.94% # Class of committed instruction. (Count)
system.cpu3.commitStats0.committedInstType::SimdSqrt            0      0.00%     92.94% # Class of committed instruction. (Count)
system.cpu3.commitStats0.committedInstType::SimdFloatAdd            0      0.00%     92.94% # Class of committed instruction. (Count)
system.cpu3.commitStats0.committedInstType::SimdFloatAlu            0      0.00%     92.94% # Class of committed instruction. (Count)
system.cpu3.commitStats0.committedInstType::SimdFloatCmp            0      0.00%     92.94% # Class of committed instruction. (Count)
system.cpu3.commitStats0.committedInstType::SimdFloatCvt            0      0.00%     92.94% # Class of committed instruction. (Count)
system.cpu3.commitStats0.committedInstType::SimdFloatDiv            0      0.00%     92.94% # Class of committed instruction. (Count)
system.cpu3.commitStats0.committedInstType::SimdFloatMisc            0      0.00%     92.94% # Class of committed instruction. (Count)
system.cpu3.commitStats0.committedInstType::SimdFloatMult            0      0.00%     92.94% # Class of committed instruction. (Count)
system.cpu3.commitStats0.committedInstType::SimdFloatMultAcc            0      0.00%     92.94% # Class of committed instruction. (Count)
system.cpu3.commitStats0.committedInstType::SimdFloatMatMultAcc            0      0.00%     92.94% # Class of committed instruction. (Count)
system.cpu3.commitStats0.committedInstType::SimdFloatSqrt            0      0.00%     92.94% # Class of committed instruction. (Count)
system.cpu3.commitStats0.committedInstType::SimdReduceAdd            0      0.00%     92.94% # Class of committed instruction. (Count)
system.cpu3.commitStats0.committedInstType::SimdReduceAlu            0      0.00%     92.94% # Class of committed instruction. (Count)
system.cpu3.commitStats0.committedInstType::SimdReduceCmp            0      0.00%     92.94% # Class of committed instruction. (Count)
system.cpu3.commitStats0.committedInstType::SimdFloatReduceAdd            0      0.00%     92.94% # Class of committed instruction. (Count)
system.cpu3.commitStats0.committedInstType::SimdFloatReduceCmp            0      0.00%     92.94% # Class of committed instruction. (Count)
system.cpu3.commitStats0.committedInstType::SimdAes            0      0.00%     92.94% # Class of committed instruction. (Count)
system.cpu3.commitStats0.committedInstType::SimdAesMix            0      0.00%     92.94% # Class of committed instruction. (Count)
system.cpu3.commitStats0.committedInstType::SimdSha1Hash            0      0.00%     92.94% # Class of committed instruction. (Count)
system.cpu3.commitStats0.committedInstType::SimdSha1Hash2            0      0.00%     92.94% # Class of committed instruction. (Count)
system.cpu3.commitStats0.committedInstType::SimdSha256Hash            0      0.00%     92.94% # Class of committed instruction. (Count)
system.cpu3.commitStats0.committedInstType::SimdSha256Hash2            0      0.00%     92.94% # Class of committed instruction. (Count)
system.cpu3.commitStats0.committedInstType::SimdShaSigma2            0      0.00%     92.94% # Class of committed instruction. (Count)
system.cpu3.commitStats0.committedInstType::SimdShaSigma3            0      0.00%     92.94% # Class of committed instruction. (Count)
system.cpu3.commitStats0.committedInstType::SimdPredAlu            0      0.00%     92.94% # Class of committed instruction. (Count)
system.cpu3.commitStats0.committedInstType::Matrix            0      0.00%     92.94% # Class of committed instruction. (Count)
system.cpu3.commitStats0.committedInstType::MatrixMov            0      0.00%     92.94% # Class of committed instruction. (Count)
system.cpu3.commitStats0.committedInstType::MatrixOP            0      0.00%     92.94% # Class of committed instruction. (Count)
system.cpu3.commitStats0.committedInstType::MemRead        13458      3.73%     96.67% # Class of committed instruction. (Count)
system.cpu3.commitStats0.committedInstType::MemWrite        11372      3.15%     99.82% # Class of committed instruction. (Count)
system.cpu3.commitStats0.committedInstType::FloatMemRead          121      0.03%     99.86% # Class of committed instruction. (Count)
system.cpu3.commitStats0.committedInstType::FloatMemWrite          523      0.14%    100.00% # Class of committed instruction. (Count)
system.cpu3.commitStats0.committedInstType::IprAccess            0      0.00%    100.00% # Class of committed instruction. (Count)
system.cpu3.commitStats0.committedInstType::InstPrefetch            0      0.00%    100.00% # Class of committed instruction. (Count)
system.cpu3.commitStats0.committedInstType::SimdUnitStrideLoad            0      0.00%    100.00% # Class of committed instruction. (Count)
system.cpu3.commitStats0.committedInstType::SimdUnitStrideStore            0      0.00%    100.00% # Class of committed instruction. (Count)
system.cpu3.commitStats0.committedInstType::SimdUnitStrideMaskLoad            0      0.00%    100.00% # Class of committed instruction. (Count)
system.cpu3.commitStats0.committedInstType::SimdUnitStrideMaskStore            0      0.00%    100.00% # Class of committed instruction. (Count)
system.cpu3.commitStats0.committedInstType::SimdStridedLoad            0      0.00%    100.00% # Class of committed instruction. (Count)
system.cpu3.commitStats0.committedInstType::SimdStridedStore            0      0.00%    100.00% # Class of committed instruction. (Count)
system.cpu3.commitStats0.committedInstType::SimdIndexedLoad            0      0.00%    100.00% # Class of committed instruction. (Count)
system.cpu3.commitStats0.committedInstType::SimdIndexedStore            0      0.00%    100.00% # Class of committed instruction. (Count)
system.cpu3.commitStats0.committedInstType::SimdWholeRegisterLoad            0      0.00%    100.00% # Class of committed instruction. (Count)
system.cpu3.commitStats0.committedInstType::SimdWholeRegisterStore            0      0.00%    100.00% # Class of committed instruction. (Count)
system.cpu3.commitStats0.committedInstType::SimdUnitStrideFaultOnlyFirstLoad            0      0.00%    100.00% # Class of committed instruction. (Count)
system.cpu3.commitStats0.committedInstType::SimdUnitStrideSegmentedLoad            0      0.00%    100.00% # Class of committed instruction. (Count)
system.cpu3.commitStats0.committedInstType::SimdUnitStrideSegmentedStore            0      0.00%    100.00% # Class of committed instruction. (Count)
system.cpu3.commitStats0.committedInstType::SimdUnitStrideSegmentedFaultOnlyFirstLoad            0      0.00%    100.00% # Class of committed instruction. (Count)
system.cpu3.commitStats0.committedInstType::SimdStrideSegmentedLoad            0      0.00%    100.00% # Class of committed instruction. (Count)
system.cpu3.commitStats0.committedInstType::SimdStrideSegmentedStore            0      0.00%    100.00% # Class of committed instruction. (Count)
system.cpu3.commitStats0.committedInstType::SimdExt            0      0.00%    100.00% # Class of committed instruction. (Count)
system.cpu3.commitStats0.committedInstType::SimdFloatExt            0      0.00%    100.00% # Class of committed instruction. (Count)
system.cpu3.commitStats0.committedInstType::SimdConfig            0      0.00%    100.00% # Class of committed instruction. (Count)
system.cpu3.commitStats0.committedInstType::total       361032                       # Class of committed instruction. (Count)
system.cpu3.commitStats0.committedControl::IsControl        73749                       # Class of control type instructions committed (Count)
system.cpu3.commitStats0.committedControl::IsDirectControl        73501                       # Class of control type instructions committed (Count)
system.cpu3.commitStats0.committedControl::IsIndirectControl          248                       # Class of control type instructions committed (Count)
system.cpu3.commitStats0.committedControl::IsCondControl        53213                       # Class of control type instructions committed (Count)
system.cpu3.commitStats0.committedControl::IsUncondControl        20536                       # Class of control type instructions committed (Count)
system.cpu3.commitStats0.committedControl::IsCall          180                       # Class of control type instructions committed (Count)
system.cpu3.commitStats0.committedControl::IsReturn          175                       # Class of control type instructions committed (Count)
system.cpu3.exec_context.thread_0.numMatAluAccesses            0                       # Number of matrix alu accesses (Count)
system.cpu3.exec_context.thread_0.numCallsReturns          355                       # Number of times a function call or return occured (Count)
system.cpu3.exec_context.thread_0.numMatInsts            0                       # Number of matrix instructions (Count)
system.cpu3.exec_context.thread_0.numIdleCycles   416.877787                       # Number of idle cycles (Cycle)
system.cpu3.exec_context.thread_0.numBusyCycles 1399107.122213                       # Number of busy cycles (Cycle)
system.cpu3.exec_context.thread_0.notIdleFraction     0.999702                       # Percentage of non-idle cycles (Ratio)
system.cpu3.exec_context.thread_0.idleFraction     0.000298                       # Percentage of idle cycles (Ratio)
system.cpu3.executeStats0.numInsts                  0                       # Number of executed instructions (Count)
system.cpu3.executeStats0.numNop                    0                       # Number of nop insts executed (Count)
system.cpu3.executeStats0.numBranches               0                       # Number of branches executed (Count)
system.cpu3.executeStats0.numLoadInsts              0                       # Number of load instructions executed (Count)
system.cpu3.executeStats0.numStoreInsts         25474                       # Number of stores executed (Count)
system.cpu3.executeStats0.instRate                  0                       # Inst execution rate ((Count/Cycle))
system.cpu3.executeStats0.numFpAluAccesses         1354                       # Number of float alu accesses (Count)
system.cpu3.executeStats0.numFpRegReads          1462                       # Number of times the floating registers were read (Count)
system.cpu3.executeStats0.numFpRegWrites          785                       # Number of times the floating registers were written (Count)
system.cpu3.executeStats0.numIntAluAccesses       360172                       # Number of integer alu accesses (Count)
system.cpu3.executeStats0.numIntRegReads       329024                       # Number of times the integer registers were read (Count)
system.cpu3.executeStats0.numIntRegWrites       221345                       # Number of times the integer registers were written (Count)
system.cpu3.executeStats0.numMemRefs            25474                       # Number of memory refs (Count)
system.cpu3.executeStats0.numMiscRegReads       173187                       # Number of times the Misc registers were read (Count)
system.cpu3.executeStats0.numVecAluAccesses            0                       # Number of vector alu accesses (Count)
system.cpu3.executeStats0.numDiscardedOps            0                       # Number of ops (including micro ops) which were discarded before commit (Count)
system.cpu3.fetchStats0.numInsts               175080                       # Number of instructions fetched (thread level) (Count)
system.cpu3.fetchStats0.numOps                 361032                       # Number of ops (including micro ops) fetched (thread level) (Count)
system.cpu3.fetchStats0.fetchRate            0.125100                       # Number of inst fetches per cycle ((Count/Cycle))
system.cpu3.fetchStats0.numBranches             73749                       # Number of branches fetched (Count)
system.cpu3.fetchStats0.branchRate           0.052696                       # Number of branch fetches per cycle (Ratio)
system.cpu3.fetchStats0.numFetchSuspends            0                       # Number of times Execute suspended instruction fetching (Count)
system.cpu3.interrupts.clk_domain.clock          8000                       # Clock period in ticks (Tick)
system.cpu3.mmu.dtb.rdAccesses                  13583                       # TLB accesses on read requests (Count)
system.cpu3.mmu.dtb.wrAccesses                  11895                       # TLB accesses on write requests (Count)
system.cpu3.mmu.dtb.rdMisses                       17                       # TLB misses on read requests (Count)
system.cpu3.mmu.dtb.wrMisses                        9                       # TLB misses on write requests (Count)
system.cpu3.mmu.dtb.walker.power_state.pwrStateResidencyTicks::UNDEFINED    699970500                       # Cumulative time (in ticks) in various power states (Tick)
system.cpu3.mmu.itb.rdAccesses                      0                       # TLB accesses on read requests (Count)
system.cpu3.mmu.itb.wrAccesses                 240096                       # TLB accesses on write requests (Count)
system.cpu3.mmu.itb.rdMisses                        0                       # TLB misses on read requests (Count)
system.cpu3.mmu.itb.wrMisses                       47                       # TLB misses on write requests (Count)
system.cpu3.mmu.itb.walker.power_state.pwrStateResidencyTicks::UNDEFINED    699970500                       # Cumulative time (in ticks) in various power states (Tick)
system.cpu3.power_state.pwrStateResidencyTicks::ON    699970500                       # Cumulative time (in ticks) in various power states (Tick)
system.cpu3.thread_0.numInsts                       0                       # Number of Instructions committed (Count)
system.cpu3.thread_0.numOps                         0                       # Number of Ops committed (Count)
system.cpu3.thread_0.numMemRefs                     0                       # Number of Memory References (Count)
system.cpu3.workload.numSyscalls                   15                       # Number of system calls (Count)
system.cpu_clk_domain.clock                       500                       # Clock period in ticks (Tick)
system.cpu_voltage_domain.voltage                   1                       # Voltage in Volts (Volt)
system.mem_ctrls.avgPriority_ruby.dir_cntrl0::samples      3175.00                       # Average QoS priority value for accepted requests (Count)
system.mem_ctrls.priorityMinLatency      0.000000018750                       # per QoS priority minimum request to response latency (Second)
system.mem_ctrls.priorityMaxLatency      0.000000602500                       # per QoS priority maximum request to response latency (Second)
system.mem_ctrls.numReadWriteTurnArounds            0                       # Number of turnarounds from READ to WRITE (Count)
system.mem_ctrls.numWriteReadTurnArounds            0                       # Number of turnarounds from WRITE to READ (Count)
system.mem_ctrls.numStayReadState                6328                       # Number of times bus staying in READ state (Count)
[...]
system.ruby.network.routers6.port_buffers1.m_msg_count        17580                       # Number of messages passed the buffer (Count)
system.ruby.network.routers6.port_buffers1.m_buf_msgs     0.012562                       # Average number of messages in buffer ((Count/Tick))
system.ruby.network.routers6.port_buffers1.m_stall_time         3000                       # Total number of ticks messages were stalled in this buffer (Tick)
system.ruby.network.routers6.port_buffers1.m_avg_stall_time     0.170648                       # Average stall ticks per message ((Tick/Count))
system.ruby.network.routers6.port_buffers10.m_msg_count        17475                       # Number of messages passed the buffer (Count)
system.ruby.network.routers6.port_buffers10.m_buf_msgs     0.012483                       # Average number of messages in buffer ((Count/Tick))
system.ruby.network.routers6.port_buffers10.m_stall_time          500                       # Total number of ticks messages were stalled in this buffer (Tick)
system.ruby.network.routers6.port_buffers10.m_avg_stall_time     0.028612                       # Average stall ticks per message ((Tick/Count))
system.ruby.network.routers6.port_buffers11.m_msg_count        20015                       # Number of messages passed the buffer (Count)
system.ruby.network.routers6.port_buffers11.m_buf_msgs     0.014297                       # Average number of messages in buffer ((Count/Tick))
system.ruby.network.routers6.port_buffers12.m_msg_count        73288                       # Number of messages passed the buffer (Count)
system.ruby.network.routers6.port_buffers12.m_buf_msgs     0.052709                       # Average number of messages in buffer ((Count/Tick))
system.ruby.network.routers6.port_buffers12.m_stall_time       250500                       # Total number of ticks messages were stalled in this buffer (Tick)
system.ruby.network.routers6.port_buffers12.m_avg_stall_time     3.418022                       # Average stall ticks per message ((Tick/Count))
system.ruby.network.routers6.port_buffers13.m_msg_count        13195                       # Number of messages passed the buffer (Count)
system.ruby.network.routers6.port_buffers13.m_buf_msgs     0.009433                       # Average number of messages in buffer ((Count/Tick))
system.ruby.network.routers6.port_buffers13.m_stall_time         5500                       # Total number of ticks messages were stalled in this buffer (Tick)
system.ruby.network.routers6.port_buffers13.m_avg_stall_time     0.416825                       # Average stall ticks per message ((Tick/Count))
system.ruby.network.routers6.port_buffers14.m_msg_count        51205                       # Number of messages passed the buffer (Count)
system.ruby.network.routers6.port_buffers14.m_buf_msgs     0.036634                       # Average number of messages in buffer ((Count/Tick))
system.ruby.network.routers6.port_buffers14.m_stall_time        40000                       # Total number of ticks messages were stalled in this buffer (Tick)
system.ruby.network.routers6.port_buffers14.m_avg_stall_time     0.781174                       # Average stall ticks per message ((Tick/Count))
system.ruby.network.routers6.port_buffers15.m_msg_count         3175                       # Number of messages passed the buffer (Count)
system.ruby.network.routers6.port_buffers15.m_buf_msgs     0.002268                       # Average number of messages in buffer ((Count/Tick))
system.ruby.network.routers6.port_buffers2.m_msg_count        20020                       # Number of messages passed the buffer (Count)
system.ruby.network.routers6.port_buffers2.m_buf_msgs     0.014301                       # Average number of messages in buffer ((Count/Tick))
system.ruby.network.routers6.port_buffers4.m_msg_count        50804                       # Number of messages passed the buffer (Count)
system.ruby.network.routers6.port_buffers4.m_buf_msgs     0.043433                       # Average number of messages in buffer ((Count/Tick))
system.ruby.network.routers6.port_buffers4.m_stall_time      5000000                       # Total number of ticks messages were stalled in this buffer (Tick)
system.ruby.network.routers6.port_buffers4.m_avg_stall_time    98.417447                       # Average stall ticks per message ((Tick/Count))
system.ruby.network.routers6.port_buffers5.m_msg_count        10017                       # Number of messages passed the buffer (Count)
system.ruby.network.routers6.port_buffers5.m_buf_msgs     0.007155                       # Average number of messages in buffer ((Count/Tick))
system.ruby.network.routers6.port_buffers7.m_msg_count        17473                       # Number of messages passed the buffer (Count)
system.ruby.network.routers6.port_buffers7.m_buf_msgs     0.012481                       # Average number of messages in buffer ((Count/Tick))
system.ruby.network.routers6.port_buffers8.m_msg_count        20018                       # Number of messages passed the buffer (Count)
system.ruby.network.routers6.port_buffers8.m_buf_msgs     0.014299                       # Average number of messages in buffer ((Count/Tick))
system.ruby.network.routers6.power_state.pwrStateResidencyTicks::UNDEFINED    699970500                       # Cumulative time (in ticks) in various power states (Tick)
system.ruby.network.routers6.throttle00.acc_link_utilization        88988                       # Accumulated link utilization system.ruby.network.int_links06 (Count)
system.ruby.network.routers6.throttle00.link_utilization     6.356554                       # Average link utilization (Ratio)
system.ruby.network.routers6.throttle00.total_msg_count        37600                       # Total number of messages forwarded by this switch (Count)
system.ruby.network.routers6.throttle00.total_msg_bytes      1423808                       # Total number of bytes forwarded by this switch (Byte)
system.ruby.network.routers6.throttle00.total_data_msg_bytes      1123008                       # Total number of data bytes forwarded by this switch (Byte)
system.ruby.network.routers6.throttle00.total_msg_wait_time         3000                       # Total time spend forwarding messages (Tick)
system.ruby.network.routers6.throttle00.total_stall_cy            0                       # Total time spent blocked on any output link (Cycle)
system.ruby.network.routers6.throttle00.total_bw_sat_cy        70194                       # Total time bandwidth was saturated on any output link (Cycle)
system.ruby.network.routers6.throttle00.avg_msg_wait_time     0.079787                       # Average time a message took to be forwarded (Ratio)
system.ruby.network.routers6.throttle00.avg_bandwidth         1.89                       # Average bandwidth (GB/s) (Ratio)
system.ruby.network.routers6.throttle00.avg_useful_bandwidth         1.49                       # Average useful (only data) bandwidth (GB/s) (Ratio)
system.ruby.network.routers6.throttle00.msg_count.Request_Control::2        20020                       (Unspecified)
system.ruby.network.routers6.throttle00.msg_bytes.Request_Control::2       160160                       (Unspecified)
system.ruby.network.routers6.throttle00.msg_count.Response_Data::1        17547                       (Unspecified)
system.ruby.network.routers6.throttle00.msg_bytes.Response_Data::1      1263384                       (Unspecified)
system.ruby.network.routers6.throttle00.msg_count.Response_Control::1           33                       (Unspecified)
system.ruby.network.routers6.throttle00.msg_bytes.Response_Control::1          264                       (Unspecified)
system.ruby.network.routers6.throttle01.acc_link_utilization 73598.500000                       # Accumulated link utilization system.ruby.network.int_links07 (Count)
system.ruby.network.routers6.throttle01.link_utilization     5.257257                       # Average link utilization (Ratio)
system.ruby.network.routers6.throttle01.total_msg_count        60821                       # Total number of messages forwarded by this switch (Count)
system.ruby.network.routers6.throttle01.total_msg_bytes      1177576                       # Total number of bytes forwarded by this switch (Byte)
system.ruby.network.routers6.throttle01.total_data_msg_bytes       691008                       # Total number of data bytes forwarded by this switch (Byte)
system.ruby.network.routers6.throttle01.total_msg_wait_time      5000000                       # Total time spend forwarding messages (Tick)
system.ruby.network.routers6.throttle01.total_stall_cy            0                       # Total time spent blocked on any output link (Cycle)
system.ruby.network.routers6.throttle01.total_bw_sat_cy        53188                       # Total time bandwidth was saturated on any output link (Cycle)
system.ruby.network.routers6.throttle01.avg_msg_wait_time    82.208448                       # Average time a message took to be forwarded (Ratio)
system.ruby.network.routers6.throttle01.avg_bandwidth         1.57                       # Average bandwidth (GB/s) (Ratio)
system.ruby.network.routers6.throttle01.avg_useful_bandwidth         0.92                       # Average useful (only data) bandwidth (GB/s) (Ratio)
system.ruby.network.routers6.throttle01.msg_count.Request_Control::2        10017                       (Unspecified)
system.ruby.network.routers6.throttle01.msg_bytes.Request_Control::2        80136                       (Unspecified)
system.ruby.network.routers6.throttle01.msg_count.Response_Data::1        10797                       (Unspecified)
system.ruby.network.routers6.throttle01.msg_bytes.Response_Data::1       777384                       (Unspecified)
system.ruby.network.routers6.throttle01.msg_count.Response_Control::1        40007                       (Unspecified)
system.ruby.network.routers6.throttle01.msg_bytes.Response_Control::1       320056                       (Unspecified)
system.ruby.network.routers6.throttle02.acc_link_utilization 88613.500000                       # Accumulated link utilization system.ruby.network.int_links08 (Count)
system.ruby.network.routers6.throttle02.link_utilization     6.329802                       # Average link utilization (Ratio)
system.ruby.network.routers6.throttle02.total_msg_count        37491                       # Total number of messages forwarded by this switch (Count)
system.ruby.network.routers6.throttle02.total_msg_bytes      1417816                       # Total number of bytes forwarded by this switch (Byte)
system.ruby.network.routers6.throttle02.total_data_msg_bytes      1117888                       # Total number of data bytes forwarded by this switch (Byte)
system.ruby.network.routers6.throttle02.total_msg_wait_time            0                       # Total time spend forwarding messages (Tick)
system.ruby.network.routers6.throttle02.total_stall_cy            0                       # Total time spent blocked on any output link (Cycle)
system.ruby.network.routers6.throttle02.total_bw_sat_cy        69868                       # Total time bandwidth was saturated on any output link (Cycle)
system.ruby.network.routers6.throttle02.avg_msg_wait_time            0                       # Average time a message took to be forwarded (Ratio)
system.ruby.network.routers6.throttle02.avg_bandwidth         1.89                       # Average bandwidth (GB/s) (Ratio)
system.ruby.network.routers6.throttle02.avg_useful_bandwidth         1.49                       # Average useful (only data) bandwidth (GB/s) (Ratio)
system.ruby.network.routers6.throttle02.msg_count.Request_Control::2        20018                       (Unspecified)
system.ruby.network.routers6.throttle02.msg_bytes.Request_Control::2       160144                       (Unspecified)
system.ruby.network.routers6.throttle02.msg_count.Response_Data::1        17467                       (Unspecified)
system.ruby.network.routers6.throttle02.msg_bytes.Response_Data::1      1257624                       (Unspecified)
system.ruby.network.routers6.throttle02.msg_count.Response_Control::1            6                       (Unspecified)
system.ruby.network.routers6.throttle02.msg_bytes.Response_Control::1           48                       (Unspecified)
system.ruby.network.routers6.throttle03.acc_link_utilization        88605                       # Accumulated link utilization system.ruby.network.int_links09 (Count)
system.ruby.network.routers6.throttle03.link_utilization     6.329195                       # Average link utilization (Ratio)
system.ruby.network.routers6.throttle03.total_msg_count        37490                       # Total number of messages forwarded by this switch (Count)
system.ruby.network.routers6.throttle03.total_msg_bytes      1417680                       # Total number of bytes forwarded by this switch (Byte)
system.ruby.network.routers6.throttle03.total_data_msg_bytes      1117760                       # Total number of data bytes forwarded by this switch (Byte)
system.ruby.network.routers6.throttle03.total_msg_wait_time          500                       # Total time spend forwarding messages (Tick)
system.ruby.network.routers6.throttle03.total_stall_cy            0                       # Total time spent blocked on any output link (Cycle)
system.ruby.network.routers6.throttle03.total_bw_sat_cy        69861                       # Total time bandwidth was saturated on any output link (Cycle)
system.ruby.network.routers6.throttle03.avg_msg_wait_time     0.013337                       # Average time a message took to be forwarded (Ratio)
system.ruby.network.routers6.throttle03.avg_bandwidth         1.89                       # Average bandwidth (GB/s) (Ratio)
system.ruby.network.routers6.throttle03.avg_useful_bandwidth         1.49                       # Average useful (only data) bandwidth (GB/s) (Ratio)
system.ruby.network.routers6.throttle03.msg_count.Request_Control::2        20015                       (Unspecified)
system.ruby.network.routers6.throttle03.msg_bytes.Request_Control::2       160120                       (Unspecified)
system.ruby.network.routers6.throttle03.msg_count.Response_Data::1        17465                       (Unspecified)
system.ruby.network.routers6.throttle03.msg_bytes.Response_Data::1      1257480                       (Unspecified)
system.ruby.network.routers6.throttle03.msg_count.Response_Control::1           10                       (Unspecified)
system.ruby.network.routers6.throttle03.msg_bytes.Response_Control::1           80                       (Unspecified)
system.ruby.network.routers6.throttle04.acc_link_utilization       121628                       # Accumulated link utilization system.ruby.network.int_links10 (Count)
system.ruby.network.routers6.throttle04.link_utilization     8.688080                       # Average link utilization (Ratio)
system.ruby.network.routers6.throttle04.total_msg_count       137688                       # Total number of messages forwarded by this switch (Count)
system.ruby.network.routers6.throttle04.total_msg_bytes      1946048                       # Total number of bytes forwarded by this switch (Byte)
system.ruby.network.routers6.throttle04.total_data_msg_bytes       844544                       # Total number of data bytes forwarded by this switch (Byte)
system.ruby.network.routers6.throttle04.total_msg_wait_time       296000                       # Total time spend forwarding messages (Tick)
system.ruby.network.routers6.throttle04.total_stall_cy            0                       # Total time spent blocked on any output link (Cycle)
system.ruby.network.routers6.throttle04.total_bw_sat_cy        52802                       # Total time bandwidth was saturated on any output link (Cycle)
system.ruby.network.routers6.throttle04.avg_msg_wait_time     2.149788                       # Average time a message took to be forwarded (Ratio)
system.ruby.network.routers6.throttle04.avg_bandwidth         2.59                       # Average bandwidth (GB/s) (Ratio)
system.ruby.network.routers6.throttle04.avg_useful_bandwidth         1.12                       # Average useful (only data) bandwidth (GB/s) (Ratio)
system.ruby.network.routers6.throttle04.msg_count.Control::0        73286                       (Unspecified)
system.ruby.network.routers6.throttle04.msg_bytes.Control::0       586288                       (Unspecified)
system.ruby.network.routers6.throttle04.msg_count.Response_Data::1        13195                       (Unspecified)
system.ruby.network.routers6.throttle04.msg_bytes.Response_Data::1       950040                       (Unspecified)
system.ruby.network.routers6.throttle04.msg_count.Response_Control::2        51205                       (Unspecified)
system.ruby.network.routers6.throttle04.msg_bytes.Response_Control::2       409640                       (Unspecified)
system.ruby.network.routers6.throttle04.msg_count.Writeback_Data::0            1                       (Unspecified)
system.ruby.network.routers6.throttle04.msg_bytes.Writeback_Data::0           72                       (Unspecified)
system.ruby.network.routers6.throttle04.msg_count.Writeback_Control::0            1                       (Unspecified)
system.ruby.network.routers6.throttle04.msg_bytes.Writeback_Control::0            8                       (Unspecified)
system.ruby.network.routers6.throttle05.acc_link_utilization  1587.500000                       # Accumulated link utilization system.ruby.network.int_links11 (Count)
system.ruby.network.routers6.throttle05.link_utilization     0.113398                       # Average link utilization (Ratio)
system.ruby.network.routers6.throttle05.total_msg_count         3175                       # Total number of messages forwarded by this switch (Count)
system.ruby.network.routers6.throttle05.total_msg_bytes        25400                       # Total number of bytes forwarded by this switch (Byte)
system.ruby.network.routers6.throttle05.total_data_msg_bytes            0                       # Total number of data bytes forwarded by this switch (Byte)
system.ruby.network.routers6.throttle05.total_msg_wait_time            0                       # Total time spend forwarding messages (Tick)
system.ruby.network.routers6.throttle05.total_stall_cy            0                       # Total time spent blocked on any output link (Cycle)
system.ruby.network.routers6.throttle05.total_bw_sat_cy            0                       # Total time bandwidth was saturated on any output link (Cycle)
system.ruby.network.routers6.throttle05.avg_msg_wait_time            0                       # Average time a message took to be forwarded (Ratio)
system.ruby.network.routers6.throttle05.avg_bandwidth         0.03                       # Average bandwidth (GB/s) (Ratio)
system.ruby.network.routers6.throttle05.avg_useful_bandwidth         0.00                       # Average useful (only data) bandwidth (GB/s) (Ratio)
system.ruby.network.routers6.throttle05.msg_count.Control::0         3175                       (Unspecified)
system.ruby.network.routers6.throttle05.msg_bytes.Control::0        25400                       (Unspecified)
system.ruby.power_state.pwrStateResidencyTicks::UNDEFINED    699970500                       # Cumulative time (in ticks) in various power states (Tick)
system.sys_port_proxy.power_state.pwrStateResidencyTicks::UNDEFINED    699970500                       # Cumulative time (in ticks) in various power states (Tick)
system.voltage_domain.voltage                       1                       # Voltage in Volts (Volt)
system.workload.inst.arm                            0                       # number of arm instructions executed (Count)
system.workload.inst.quiesce                        0                       # number of quiesce instructions executed (Count)

---------- End Simulation Statistics   ----------
