
---------- Begin Simulation Statistics ----------
simSeconds                                   0.000504                       # Number of seconds simulated (Second)
simTicks                                    504094500                       # Number of ticks simulated (Tick)
finalTick                                   504094500                       # Number of ticks from beginning of simulation (restored from checkpoints and never reset) (Tick)
simFreq                                  1000000000000                       # The number of ticks per simulated second ((Tick/Second))
hostSeconds                                      0.71                       # Real time elapsed on the host (Second)
hostTickRate                                708369986                       # The number of ticks simulated per host second (ticks/s) ((Tick/Second))
hostMemory                                    2614188                       # Number of bytes of host memory used (Byte)
simInsts                                       286631                       # Number of instructions simulated (Count)
simOps                                         552961                       # Number of ops (including micro ops) simulated (Count)
hostInstRate                                   402738                       # Simulator instruction rate (inst/s) ((Count/Second))
hostOpRate                                     776948                       # Simulator op (including micro ops) rate (op/s) ((Count/Second))
system.clk_domain.clock                          1000                       # Clock period in ticks (Tick)
system.cpu0.numCycles                         1008189                       # Number of cpu cycles simulated (Cycle)
system.cpu0.cpi                              7.122041                       # CPI: cycles per instruction (core level) ((Cycle/Count))
system.cpu0.ipc                              0.140409                       # IPC: instructions per cycle (core level) ((Count/Cycle))
system.cpu0.numWorkItemsStarted                     0                       # Number of work items this cpu started (Count)
system.cpu0.numWorkItemsCompleted                   0                       # Number of work items this cpu completed (Count)
system.cpu0.commitStats0.numInsts              141559                       # Number of instructions committed (thread level) (Count)
system.cpu0.commitStats0.numOps                271899                       # Number of ops (including micro ops) committed (thread level) (Count)
system.cpu0.commitStats0.numInstsNotNOP             0                       # Number of instructions committed excluding NOPs or prefetches (Count)
system.cpu0.commitStats0.numOpsNotNOP               0                       # Number of Ops (including micro ops) Simulated (Count)
system.cpu0.commitStats0.cpi                 7.122041                       # CPI: cycles per instruction (thread level) ((Cycle/Count))
system.cpu0.commitStats0.ipc                 0.140409                       # IPC: instructions per cycle (thread level) ((Count/Cycle))
system.cpu0.commitStats0.numMemRefs                 0                       # Number of memory references committed (Count)
system.cpu0.commitStats0.numFpInsts              1354                       # Number of float instructions (Count)
system.cpu0.commitStats0.numIntInsts           271038                       # Number of integer instructions (Count)
system.cpu0.commitStats0.numLoadInsts           11951                       # Number of load instructions (Count)
system.cpu0.commitStats0.numStoreInsts          12550                       # Number of store instructions (Count)
system.cpu0.commitStats0.numVecInsts                0                       # Number of vector instructions (Count)
system.cpu0.commitStats0.committedInstType::No_OpClass          209      0.08%      0.08% # Class of committed instruction. (Count)
system.cpu0.commitStats0.committedInstType::IntAlu       246603     90.70%     90.77% # Class of committed instruction. (Count)
system.cpu0.commitStats0.committedInstType::IntMult           12      0.00%     90.78% # Class of committed instruction. (Count)
system.cpu0.commitStats0.committedInstType::IntDiv           21      0.01%     90.79% # Class of committed instruction. (Count)
system.cpu0.commitStats0.committedInstType::FloatAdd          172      0.06%     90.85% # Class of committed instruction. (Count)
system.cpu0.commitStats0.committedInstType::FloatCmp            0      0.00%     90.85% # Class of committed instruction. (Count)
system.cpu0.commitStats0.committedInstType::FloatCvt            0      0.00%     90.85% # Class of committed instruction. (Count)
system.cpu0.commitStats0.committedInstType::FloatMult            0      0.00%     90.85% # Class of committed instruction. (Count)
system.cpu0.commitStats0.committedInstType::FloatMultAcc            0      0.00%     90.85% # Class of committed instruction. (Count)
system.cpu0.commitStats0.committedInstType::FloatDiv            0      0.00%     90.85% # Class of committed instruction. (Count)
system.cpu0.commitStats0.committedInstType::FloatMisc            0      0.00%     90.85% # Class of committed instruction. (Count)
system.cpu0.commitStats0.committedInstType::FloatSqrt            0      0.00%     90.85% # Class of committed instruction. (Count)
system.cpu0.commitStats0.committedInstType::SimdAdd            8      0.00%     90.85% # Class of committed instruction. (Count)
system.cpu0.commitStats0.committedInstType::SimdAddAcc            0      0.00%     90.85% # Class of committed instruction. (Count)
system.cpu0.commitStats0.committedInstType::SimdAlu           96      0.04%     90.89% # Class of committed instruction. (Count)
system.cpu0.commitStats0.committedInstType::SimdCmp            0      0.00%     90.89% # Class of committed instruction. (Count)
system.cpu0.commitStats0.committedInstType::SimdCvt           48      0.02%     90.90% # Class of committed instruction. (Count)
system.cpu0.commitStats0.committedInstType::SimdMisc          229      0.08%     90.99% # Class of committed instruction. (Count)
system.cpu0.commitStats0.committedInstType::SimdMult            0      0.00%     90.99% # Class of committed instruction. (Count)
system.cpu0.commitStats0.committedInstType::SimdMultAcc            0      0.00%     90.99% # Class of committed instruction. (Count)
system.cpu0.commitStats0.committedInstType::SimdMatMultAcc            0      0.00%     90.99% # Class of committed instruction. (Count)
system.cpu0.commitStats0.committedInstType::SimdShift            0      0.00%     90.99% # Class of committed instruction. (Count)
system.cpu0.commitStats0.committedInstType::SimdShiftAcc            0      0.00%     90.99% # Class of committed instruction. (Count)
system.cpu0.commitStats0.committedInstType::SimdDiv            0      0.00%     90.99% # Class of committed instruction. (Count)
system.cpu0.commitStats0.committedInstType::SimdSqrt            0      0.00%     90.99% # Class of committed instruction. (Count)
system.cpu0.commitStats0.committedInstType::SimdFloatAdd            0      0.00%     90.99% # Class of committed instruction. (Count)
system.cpu0.commitStats0.committedInstType::SimdFloatAlu            0      0.00%     90.99% # Class of committed instruction. (Count)
system.cpu0.commitStats0.committedInstType::SimdFloatCmp            0      0.00%     90.99% # Class of committed instruction. (Count)
system.cpu0.commitStats0.committedInstType::SimdFloatCvt            0      0.00%     90.99% # Class of committed instruction. (Count)
system.cpu0.commitStats0.committedInstType::SimdFloatDiv            0      0.00%     90.99% # Class of committed instruction. (Count)
system.cpu0.commitStats0.committedInstType::SimdFloatMisc            0      0.00%     90.99% # Class of committed instruction. (Count)
system.cpu0.commitStats0.committedInstType::SimdFloatMult            0      0.00%     90.99% # Class of committed instruction. (Count)
system.cpu0.commitStats0.committedInstType::SimdFloatMultAcc            0      0.00%     90.99% # Class of committed instruction. (Count)
system.cpu0.commitStats0.committedInstType::SimdFloatMatMultAcc            0      0.00%     90.99% # Class of committed instruction. (Count)
system.cpu0.commitStats0.committedInstType::SimdFloatSqrt            0      0.00%     90.99% # Class of committed instruction. (Count)
system.cpu0.commitStats0.committedInstType::SimdReduceAdd            0      0.00%     90.99% # Class of committed instruction. (Count)
system.cpu0.commitStats0.committedInstType::SimdReduceAlu            0      0.00%     90.99% # Class of committed instruction. (Count)
system.cpu0.commitStats0.committedInstType::SimdReduceCmp            0      0.00%     90.99% # Class of committed instruction. (Count)
system.cpu0.commitStats0.committedInstType::SimdFloatReduceAdd            0      0.00%     90.99% # Class of committed instruction. (Count)
system.cpu0.commitStats0.committedInstType::SimdFloatReduceCmp            0      0.00%     90.99% # Class of committed instruction. (Count)
system.cpu0.commitStats0.committedInstType::SimdAes            0      0.00%     90.99% # Class of committed instruction. (Count)
system.cpu0.commitStats0.committedInstType::SimdAesMix            0      0.00%     90.99% # Class of committed instruction. (Count)
system.cpu0.commitStats0.committedInstType::SimdSha1Hash            0      0.00%     90.99% # Class of committed instruction. (Count)
system.cpu0.commitStats0.committedInstType::SimdSha1Hash2            0      0.00%     90.99% # Class of committed instruction. (Count)
system.cpu0.commitStats0.committedInstType::SimdSha256Hash            0      0.00%     90.99% # Class of committed instruction. (Count)
system.cpu0.commitStats0.committedInstType::SimdSha256Hash2            0      0.00%     90.99% # Class of committed instruction. (Count)
system.cpu0.commitStats0.committedInstType::SimdShaSigma2            0      0.00%     90.99% # Class of committed instruction. (Count)
system.cpu0.commitStats0.committedInstType::SimdShaSigma3            0      0.00%     90.99% # Class of committed instruction. (Count)
system.cpu0.commitStats0.committedInstType::SimdPredAlu            0      0.00%     90.99% # Class of committed instruction. (Count)
system.cpu0.commitStats0.committedInstType::Matrix            0      0.00%     90.99% # Class of committed instruction. (Count)
system.cpu0.commitStats0.committedInstType::MatrixMov            0      0.00%     90.99% # Class of committed instruction. (Count)
system.cpu0.commitStats0.committedInstType::MatrixOP            0      0.00%     90.99% # Class of committed instruction. (Count)
system.cpu0.commitStats0.committedInstType::MemRead        11830      4.35%     95.34% # Class of committed instruction. (Count)
system.cpu0.commitStats0.committedInstType::MemWrite        12027      4.42%     99.76% # Class of committed instruction. (Count)
system.cpu0.commitStats0.committedInstType::FloatMemRead          121      0.04%     99.81% # Class of committed instruction. (Count)
system.cpu0.commitStats0.committedInstType::FloatMemWrite          523      0.19%    100.00% # Class of committed instruction. (Count)
system.cpu0.commitStats0.committedInstType::IprAccess            0      0.00%    100.00% # Class of committed instruction. (Count)
system.cpu0.commitStats0.committedInstType::InstPrefetch            0      0.00%    100.00% # Class of committed instruction. (Count)
system.cpu0.commitStats0.committedInstType::SimdUnitStrideLoad            0      0.00%    100.00% # Class of committed instruction. (Count)
system.cpu0.commitStats0.committedInstType::SimdUnitStrideStore            0      0.00%    100.00% # Class of committed instruction. (Count)
system.cpu0.commitStats0.committedInstType::SimdUnitStrideMaskLoad            0      0.00%    100.00% # Class of committed instruction. (Count)
system.cpu0.commitStats0.committedInstType::SimdUnitStrideMaskStore            0      0.00%    100.00% # Class of committed instruction. (Count)
system.cpu0.commitStats0.committedInstType::SimdStridedLoad            0      0.00%    100.00% # Class of committed instruction. (Count)
system.cpu0.commitStats0.committedInstType::SimdStridedStore            0      0.00%    100.00% # Class of committed instruction. (Count)
system.cpu0.commitStats0.committedInstType::SimdIndexedLoad            0      0.00%    100.00% # Class of committed instruction. (Count)
system.cpu0.commitStats0.committedInstType::SimdIndexedStore            0      0.00%    100.00% # Class of committed instruction. (Count)
system.cpu0.commitStats0.committedInstType::SimdWholeRegisterLoad            0      0.00%    100.00% # Class of committed instruction. (Count)
system.cpu0.commitStats0.committedInstType::SimdWholeRegisterStore            0      0.00%    100.00% # Class of committed instruction. (Count)
system.cpu0.commitStats0.committedInstType::SimdUnitStrideFaultOnlyFirstLoad            0      0.00%    100.00% # Class of committed instruction. (Count)
system.cpu0.commitStats0.committedInstType::SimdUnitStrideSegmentedLoad            0      0.00%    100.00% # Class of committed instruction. (Count)
system.cpu0.commitStats0.committedInstType::SimdUnitStrideSegmentedStore            0      0.00%    100.00% # Class of committed instruction. (Count)
system.cpu0.commitStats0.committedInstType::SimdUnitStrideSegmentedFaultOnlyFirstLoad            0      0.00%    100.00% # Class of committed instruction. (Count)
system.cpu0.commitStats0.committedInstType::SimdStrideSegmentedLoad            0      0.00%    100.00% # Class of committed instruction. (Count)
system.cpu0.commitStats0.committedInstType::SimdStrideSegmentedStore            0      0.00%    100.00% # Class of committed instruction. (Count)
system.cpu0.commitStats0.committedInstType::SimdExt            0      0.00%    100.00% # Class of committed instruction. (Count)
system.cpu0.commitStats0.committedInstType::SimdFloatExt            0      0.00%    100.00% # Class of committed instruction. (Count)
system.cpu0.commitStats0.committedInstType::SimdConfig            0      0.00%    100.00% # Class of committed instruction. (Count)
system.cpu0.commitStats0.committedInstType::total       271899                       # Class of committed instruction. (Count)
system.cpu0.commitStats0.committedControl::IsControl        52166                       # Class of control type instructions committed (Count)
system.cpu0.commitStats0.committedControl::IsDirectControl        51918                       # Class of control type instructions committed (Count)
system.cpu0.commitStats0.committedControl::IsIndirectControl          248                       # Class of control type instructions committed (Count)
system.cpu0.commitStats0.committedControl::IsCondControl        41629                       # Class of control type instructions committed (Count)
system.cpu0.commitStats0.committedControl::IsUncondControl        10537                       # Class of control type instructions committed (Count)
system.cpu0.commitStats0.committedControl::IsCall          180                       # Class of control type instructions committed (Count)
system.cpu0.commitStats0.committedControl::IsReturn          175                       # Class of control type instructions committed (Count)
system.cpu0.exec_context.thread_0.numMatAluAccesses            0                       # Number of matrix alu accesses (Count)
system.cpu0.exec_context.thread_0.numCallsReturns          355                       # Number of times a function call or return occured (Count)
system.cpu0.exec_context.thread_0.numMatInsts            0                       # Number of matrix instructions (Count)
system.cpu0.exec_context.thread_0.numIdleCycles     0.002000                       # Number of idle cycles (Cycle)
system.cpu0.exec_context.thread_0.numBusyCycles 1008188.998000                       # Number of busy cycles (Cycle)
system.cpu0.exec_context.thread_0.notIdleFraction     1.000000                       # Percentage of non-idle cycles (Ratio)
system.cpu0.exec_context.thread_0.idleFraction     0.000000                       # Percentage of idle cycles (Ratio)
system.cpu0.executeStats0.numInsts                  0                       # Number of executed instructions (Count)
system.cpu0.executeStats0.numNop                    0                       # Number of nop insts executed (Count)
system.cpu0.executeStats0.numBranches               0                       # Number of branches executed (Count)
system.cpu0.executeStats0.numLoadInsts              0                       # Number of load instructions executed (Count)
system.cpu0.executeStats0.numStoreInsts         24501                       # Number of stores executed (Count)
system.cpu0.executeStats0.instRate                  0                       # Inst execution rate ((Count/Cycle))
system.cpu0.executeStats0.numFpAluAccesses         1354                       # Number of float alu accesses (Count)
system.cpu0.executeStats0.numFpRegReads          1462                       # Number of times the floating registers were read (Count)
system.cpu0.executeStats0.numFpRegWrites          785                       # Number of times the floating registers were written (Count)
system.cpu0.executeStats0.numIntAluAccesses       271038                       # Number of integer alu accesses (Count)
system.cpu0.executeStats0.numIntRegReads       283636                       # Number of times the integer registers were read (Count)
system.cpu0.executeStats0.numIntRegWrites       164723                       # Number of times the integer registers were written (Count)
system.cpu0.executeStats0.numMemRefs            24501                       # Number of memory refs (Count)
system.cpu0.executeStats0.numMiscRegReads       129048                       # Number of times the Misc registers were read (Count)
system.cpu0.executeStats0.numVecAluAccesses            0                       # Number of vector alu accesses (Count)
system.cpu0.executeStats0.numDiscardedOps            0                       # Number of ops (including micro ops) which were discarded before commit (Count)
system.cpu0.fetchStats0.numInsts               141559                       # Number of instructions fetched (thread level) (Count)
system.cpu0.fetchStats0.numOps                 271899                       # Number of ops (including micro ops) fetched (thread level) (Count)
system.cpu0.fetchStats0.fetchRate            0.140409                       # Number of inst fetches per cycle ((Count/Cycle))
system.cpu0.fetchStats0.numBranches             52166                       # Number of branches fetched (Count)
system.cpu0.fetchStats0.branchRate           0.051742                       # Number of branch fetches per cycle (Ratio)
system.cpu0.fetchStats0.numFetchSuspends            0                       # Number of times Execute suspended instruction fetching (Count)
system.cpu0.interrupts.clk_domain.clock          8000                       # Clock period in ticks (Tick)
system.cpu0.mmu.dtb.rdAccesses                  11955                       # TLB accesses on read requests (Count)
system.cpu0.mmu.dtb.wrAccesses                  12550                       # TLB accesses on write requests (Count)
system.cpu0.mmu.dtb.rdMisses                       15                       # TLB misses on read requests (Count)
system.cpu0.mmu.dtb.wrMisses                       11                       # TLB misses on write requests (Count)
system.cpu0.mmu.dtb.walker.power_state.pwrStateResidencyTicks::UNDEFINED    504094500                       # Cumulative time (in ticks) in various power states (Tick)
system.cpu0.mmu.itb.rdAccesses                      0                       # TLB accesses on read requests (Count)
system.cpu0.mmu.itb.wrAccesses                 205963                       # TLB accesses on write requests (Count)
system.cpu0.mmu.itb.rdMisses                        0                       # TLB misses on read requests (Count)
system.cpu0.mmu.itb.wrMisses                       46                       # TLB misses on write requests (Count)
system.cpu0.mmu.itb.walker.power_state.pwrStateResidencyTicks::UNDEFINED    504094500                       # Cumulative time (in ticks) in various power states (Tick)
system.cpu0.power_state.pwrStateResidencyTicks::ON    504094500                       # Cumulative time (in ticks) in various power states (Tick)
system.cpu0.thread_0.numInsts                       0                       # Number of Instructions committed (Count)
system.cpu0.thread_0.numOps                         0                       # Number of Ops committed (Count)
system.cpu0.thread_0.numMemRefs                     0                       # Number of Memory References (Count)
system.cpu0.workload.numSyscalls                   15                       # Number of system calls (Count)
system.cpu1.numCycles                         1007742                       # Number of cpu cycles simulated (Cycle)
system.cpu1.cpi                              6.944868                       # CPI: cycles per instruction (core level) ((Cycle/Count))
system.cpu1.ipc                              0.143991                       # IPC: instructions per cycle (core level) ((Count/Cycle))
system.cpu1.numWorkItemsStarted                     0                       # Number of work items this cpu started (Count)
system.cpu1.numWorkItemsCompleted                   0                       # Number of work items this cpu completed (Count)
system.cpu1.commitStats0.numInsts              145106                       # Number of instructions committed (thread level) (Count)
system.cpu1.commitStats0.numOps                281098                       # Number of ops (including micro ops) committed (thread level) (Count)
system.cpu1.commitStats0.numInstsNotNOP             0                       # Number of instructions committed excluding NOPs or prefetches (Count)
system.cpu1.commitStats0.numOpsNotNOP               0                       # Number of Ops (including micro ops) Simulated (Count)
system.cpu1.commitStats0.cpi                 6.944868                       # CPI: cycles per instruction (thread level) ((Cycle/Count))
system.cpu1.commitStats0.ipc                 0.143991                       # IPC: instructions per cycle (thread level) ((Count/Cycle))
system.cpu1.commitStats0.numMemRefs                 0                       # Number of memory references committed (Count)
system.cpu1.commitStats0.numFpInsts              1354                       # Number of float instructions (Count)
system.cpu1.commitStats0.numIntInsts           280239                       # Number of integer instructions (Count)
system.cpu1.commitStats0.numLoadInsts           13576                       # Number of load instructions (Count)
system.cpu1.commitStats0.numStoreInsts          11897                       # Number of store instructions (Count)
system.cpu1.commitStats0.numVecInsts                0                       # Number of vector instructions (Count)
system.cpu1.commitStats0.committedInstType::No_OpClass          208      0.07%      0.07% # Class of committed instruction. (Count)
system.cpu1.commitStats0.committedInstType::IntAlu       254831     90.66%     90.73% # Class of committed instruction. (Count)
system.cpu1.commitStats0.committedInstType::IntMult           12      0.00%     90.73% # Class of committed instruction. (Count)
system.cpu1.commitStats0.committedInstType::IntDiv           21      0.01%     90.74% # Class of committed instruction. (Count)
system.cpu1.commitStats0.committedInstType::FloatAdd          172      0.06%     90.80% # Class of committed instruction. (Count)
system.cpu1.commitStats0.committedInstType::FloatCmp            0      0.00%     90.80% # Class of committed instruction. (Count)
system.cpu1.commitStats0.committedInstType::FloatCvt            0      0.00%     90.80% # Class of committed instruction. (Count)
system.cpu1.commitStats0.committedInstType::FloatMult            0      0.00%     90.80% # Class of committed instruction. (Count)
system.cpu1.commitStats0.committedInstType::FloatMultAcc            0      0.00%     90.80% # Class of committed instruction. (Count)
system.cpu1.commitStats0.committedInstType::FloatDiv            0      0.00%     90.80% # Class of committed instruction. (Count)
system.cpu1.commitStats0.committedInstType::FloatMisc            0      0.00%     90.80% # Class of committed instruction. (Count)
system.cpu1.commitStats0.committedInstType::FloatSqrt            0      0.00%     90.80% # Class of committed instruction. (Count)
system.cpu1.commitStats0.committedInstType::SimdAdd            8      0.00%     90.81% # Class of committed instruction. (Count)
system.cpu1.commitStats0.committedInstType::SimdAddAcc            0      0.00%     90.81% # Class of committed instruction. (Count)
system.cpu1.commitStats0.committedInstType::SimdAlu           96      0.03%     90.84% # Class of committed instruction. (Count)
system.cpu1.commitStats0.committedInstType::SimdCmp            0      0.00%     90.84% # Class of committed instruction. (Count)
system.cpu1.commitStats0.committedInstType::SimdCvt           48      0.02%     90.86% # Class of committed instruction. (Count)
system.cpu1.commitStats0.committedInstType::SimdMisc          229      0.08%     90.94% # Class of committed instruction. (Count)
system.cpu1.commitStats0.committedInstType::SimdMult            0      0.00%     90.94% # Class of committed instruction. (Count)
system.cpu1.commitStats0.committedInstType::SimdMultAcc            0      0.00%     90.94% # Class of committed instruction. (Count)
system.cpu1.commitStats0.committedInstType::SimdMatMultAcc            0      0.00%     90.94% # Class of committed instruction. (Count)
system.cpu1.commitStats0.committedInstType::SimdShift            0      0.00%     90.94% # Class of committed instruction. (Count)
system.cpu1.commitStats0.committedInstType::SimdShiftAcc            0      0.00%     90.94% # Class of committed instruction. (Count)
system.cpu1.commitStats0.committedInstType::SimdDiv            0      0.00%     90.94% # Class of committed instruction. (Count)
system.cpu1.commitStats0.committedInstType::SimdSqrt            0      0.00%     90.94% # Class of committed instruction. (Count)
system.cpu1.commitStats0.committedInstType::SimdFloatAdd            0      0.00%     90.94% # Class of committed instruction. (Count)
system.cpu1.commitStats0.committedInstType::SimdFloatAlu            0      0.00%     90.94% # Class of committed instruction. (Count)
system.cpu1.commitStats0.committedInstType::SimdFloatCmp            0      0.00%     90.94% # Class of committed instruction. (Count)
system.cpu1.commitStats0.committedInstType::SimdFloatCvt            0      0.00%     90.94% # Class of committed instruction. (Count)
system.cpu1.commitStats0.committedInstType::SimdFloatDiv            0      0.00%     90.94% # Class of committed instruction. (Count)
system.cpu1.commitStats0.committedInstType::SimdFloatMisc            0      0.00%     90.94% # Class of committed instruction. (Count)
system.cpu1.commitStats0.committedInstType::SimdFloatMult            0      0.00%     90.94% # Class of committed instruction. (Count)
system.cpu1.commitStats0.committedInstType::SimdFloatMultAcc            0      0.00%     90.94% # Class of committed instruction. (Count)
system.cpu1.commitStats0.committedInstType::SimdFloatMatMultAcc            0      0.00%     90.94% # Class of committed instruction. (Count)
system.cpu1.commitStats0.committedInstType::SimdFloatSqrt            0      0.00%     90.94% # Class of committed instruction. (Count)
system.cpu1.commitStats0.committedInstType::SimdReduceAdd            0      0.00%     90.94% # Class of committed instruction. (Count)
system.cpu1.commitStats0.committedInstType::SimdReduceAlu            0      0.00%     90.94% # Class of committed instruction. (Count)
system.cpu1.commitStats0.committedInstType::SimdReduceCmp            0      0.00%     90.94% # Class of committed instruction. (Count)
system.cpu1.commitStats0.committedInstType::SimdFloatReduceAdd            0      0.00%     90.94% # Class of committed instruction. (Count)
system.cpu1.commitStats0.committedInstType::SimdFloatReduceCmp            0      0.00%     90.94% # Class of committed instruction. (Count)
system.cpu1.commitStats0.committedInstType::SimdAes            0      0.00%     90.94% # Class of committed instruction. (Count)
system.cpu1.commitStats0.committedInstType::SimdAesMix            0      0.00%     90.94% # Class of committed instruction. (Count)
system.cpu1.commitStats0.committedInstType::SimdSha1Hash            0      0.00%     90.94% # Class of committed instruction. (Count)
system.cpu1.commitStats0.committedInstType::SimdSha1Hash2            0      0.00%     90.94% # Class of committed instruction. (Count)
system.cpu1.commitStats0.committedInstType::SimdSha256Hash            0      0.00%     90.94% # Class of committed instruction. (Count)
system.cpu1.commitStats0.committedInstType::SimdSha256Hash2            0      0.00%     90.94% # Class of committed instruction. (Count)
system.cpu1.commitStats0.committedInstType::SimdShaSigma2            0      0.00%     90.94% # Class of committed instruction. (Count)
system.cpu1.commitStats0.committedInstType::SimdShaSigma3            0      0.00%     90.94% # Class of committed instruction. (Count)
system.cpu1.commitStats0.committedInstType::SimdPredAlu            0      0.00%     90.94% # Class of committed instruction. (Count)
system.cpu1.commitStats0.committedInstType::Matrix            0      0.00%     90.94% # Class of committed instruction. (Count)
system.cpu1.commitStats0.committedInstType::MatrixMov            0      0.00%     90.94% # Class of committed instruction. (Count)
system.cpu1.commitStats0.committedInstType::MatrixOP            0      0.00%     90.94% # Class of committed instruction. (Count)
system.cpu1.commitStats0.committedInstType::MemRead        13455      4.79%     95.72% # Class of committed instruction. (Count)
system.cpu1.commitStats0.committedInstType::MemWrite        11374      4.05%     99.77% # Class of committed instruction. (Count)
system.cpu1.commitStats0.committedInstType::FloatMemRead          121      0.04%     99.81% # Class of committed instruction. (Count)
system.cpu1.commitStats0.committedInstType::FloatMemWrite          523      0.19%    100.00% # Class of committed instruction. (Count)
system.cpu1.commitStats0.committedInstType::IprAccess            0      0.00%    100.00% # Class of committed instruction. (Count)
system.cpu1.commitStats0.committedInstType::InstPrefetch            0      0.00%    100.00% # Class of committed instruction. (Count)
system.cpu1.commitStats0.committedInstType::SimdUnitStrideLoad            0      0.00%    100.00% # Class of committed instruction. (Count)
system.cpu1.commitStats0.committedInstType::SimdUnitStrideStore            0      0.00%    100.00% # Class of committed instruction. (Count)
system.cpu1.commitStats0.committedInstType::SimdUnitStrideMaskLoad            0      0.00%    100.00% # Class of committed instruction. (Count)
system.cpu1.commitStats0.committedInstType::SimdUnitStrideMaskStore            0      0.00%    100.00% # Class of committed instruction. (Count)
system.cpu1.commitStats0.committedInstType::SimdStridedLoad            0      0.00%    100.00% # Class of committed instruction. (Count)
system.cpu1.commitStats0.committedInstType::SimdStridedStore            0      0.00%    100.00% # Class of committed instruction. (Count)
system.cpu1.commitStats0.committedInstType::SimdIndexedLoad            0      0.00%    100.00% # Class of committed instruction. (Count)
system.cpu1.commitStats0.committedInstType::SimdIndexedStore            0      0.00%    100.00% # Class of committed instruction. (Count)
system.cpu1.commitStats0.committedInstType::SimdWholeRegisterLoad            0      0.00%    100.00% # Class of committed instruction. (Count)
system.cpu1.commitStats0.committedInstType::SimdWholeRegisterStore            0      0.00%    100.00% # Class of committed instruction. (Count)
system.cpu1.commitStats0.committedInstType::SimdUnitStrideFaultOnlyFirstLoad            0      0.00%    100.00% # Class of committed instruction. (Count)
system.cpu1.commitStats0.committedInstType::SimdUnitStrideSegmentedLoad            0      0.00%    100.00% # Class of committed instruction. (Count)
system.cpu1.commitStats0.committedInstType::SimdUnitStrideSegmentedStore            0      0.00%    100.00% # Class of committed instruction. (Count)
system.cpu1.commitStats0.committedInstType::SimdUnitStrideSegmentedFaultOnlyFirstLoad            0      0.00%    100.00% # Class of committed instruction. (Count)
system.cpu1.commitStats0.committedInstType::SimdStrideSegmentedLoad            0      0.00%    100.00% # Class of committed instruction. (Count)
system.cpu1.commitStats0.committedInstType::SimdStrideSegmentedStore            0      0.00%    100.00% # Class of committed instruction. (Count)
system.cpu1.commitStats0.committedInstType::SimdExt            0      0.00%    100.00% # Class of committed instruction. (Count)
system.cpu1.commitStats0.committedInstType::SimdFloatExt            0      0.00%    100.00% # Class of committed instruction. (Count)
system.cpu1.commitStats0.committedInstType::SimdConfig            0      0.00%    100.00% # Class of committed instruction. (Count)
system.cpu1.commitStats0.committedInstType::total       281098                       # Class of committed instruction. (Count)
system.cpu1.commitStats0.committedControl::IsControl        53759                       # Class of control type instructions committed (Count)
system.cpu1.commitStats0.committedControl::IsDirectControl        53511                       # Class of control type instructions committed (Count)
system.cpu1.commitStats0.committedControl::IsIndirectControl          248                       # Class of control type instructions committed (Count)
system.cpu1.commitStats0.committedControl::IsCondControl        43223                       # Class of control type instructions committed (Count)
system.cpu1.commitStats0.committedControl::IsUncondControl        10536                       # Class of control type instructions committed (Count)
system.cpu1.commitStats0.committedControl::IsCall          180                       # Class of control type instructions committed (Count)
system.cpu1.commitStats0.committedControl::IsReturn          175                       # Class of control type instructions committed (Count)
system.cpu1.exec_context.thread_0.numMatAluAccesses            0                       # Number of matrix alu accesses (Count)
system.cpu1.exec_context.thread_0.numCallsReturns          355                       # Number of times a function call or return occured (Count)
system.cpu1.exec_context.thread_0.numMatInsts            0                       # Number of matrix instructions (Count)
system.cpu1.exec_context.thread_0.numIdleCycles   446.803812                       # Number of idle cycles (Cycle)
system.cpu1.exec_context.thread_0.numBusyCycles 1007295.196188                       # Number of busy cycles (Cycle)
system.cpu1.exec_context.thread_0.notIdleFraction     0.999557                       # Percentage of non-idle cycles (Ratio)
system.cpu1.exec_context.thread_0.idleFraction     0.000443                       # Percentage of idle cycles (Ratio)
system.cpu1.executeStats0.numInsts                  0                       # Number of executed instructions (Count)
system.cpu1.executeStats0.numNop                    0                       # Number of nop insts executed (Count)
system.cpu1.executeStats0.numBranches               0                       # Number of branches executed (Count)
system.cpu1.executeStats0.numLoadInsts              0                       # Number of load instructions executed (Count)
system.cpu1.executeStats0.numStoreInsts         25473                       # Number of stores executed (Count)
system.cpu1.executeStats0.instRate                  0                       # Inst execution rate ((Count/Cycle))
system.cpu1.executeStats0.numFpAluAccesses         1354                       # Number of float alu accesses (Count)
system.cpu1.executeStats0.numFpRegReads          1462                       # Number of times the floating registers were read (Count)
system.cpu1.executeStats0.numFpRegWrites          785                       # Number of times the floating registers were written (Count)
system.cpu1.executeStats0.numIntAluAccesses       280239                       # Number of integer alu accesses (Count)
system.cpu1.executeStats0.numIntRegReads       289047                       # Number of times the integer registers were read (Count)
system.cpu1.executeStats0.numIntRegWrites       171391                       # Number of times the integer registers were written (Count)
system.cpu1.executeStats0.numMemRefs            25473                       # Number of memory refs (Count)
system.cpu1.executeStats0.numMiscRegReads       133206                       # Number of times the Misc registers were read (Count)
system.cpu1.executeStats0.numVecAluAccesses            0                       # Number of vector alu accesses (Count)
system.cpu1.executeStats0.numDiscardedOps            0                       # Number of ops (including micro ops) which were discarded before commit (Count)
system.cpu1.fetchStats0.numInsts               145106                       # Number of instructions fetched (thread level) (Count)
system.cpu1.fetchStats0.numOps                 281098                       # Number of ops (including micro ops) fetched (thread level) (Count)
system.cpu1.fetchStats0.fetchRate            0.143991                       # Number of inst fetches per cycle ((Count/Cycle))
system.cpu1.fetchStats0.numBranches             53759                       # Number of branches fetched (Count)
system.cpu1.fetchStats0.branchRate           0.053346                       # Number of branch fetches per cycle (Ratio)
system.cpu1.fetchStats0.numFetchSuspends            0                       # Number of times Execute suspended instruction fetching (Count)
system.cpu1.interrupts.clk_domain.clock          8000                       # Clock period in ticks (Tick)
system.cpu1.mmu.dtb.rdAccesses                  13580                       # TLB accesses on read requests (Count)
system.cpu1.mmu.dtb.wrAccesses                  11897                       # TLB accesses on write requests (Count)
system.cpu1.mmu.dtb.rdMisses                       17                       # TLB misses on read requests (Count)
system.cpu1.mmu.dtb.wrMisses                        9                       # TLB misses on write requests (Count)
system.cpu1.mmu.dtb.walker.power_state.pwrStateResidencyTicks::UNDEFINED    504094500                       # Cumulative time (in ticks) in various power states (Tick)
system.cpu1.mmu.itb.rdAccesses                      0                       # TLB accesses on read requests (Count)
system.cpu1.mmu.itb.wrAccesses                 210126                       # TLB accesses on write requests (Count)
system.cpu1.mmu.itb.rdMisses                        0                       # TLB misses on read requests (Count)
system.cpu1.mmu.itb.wrMisses                       46                       # TLB misses on write requests (Count)
system.cpu1.mmu.itb.walker.power_state.pwrStateResidencyTicks::UNDEFINED    504094500                       # Cumulative time (in ticks) in various power states (Tick)
system.cpu1.power_state.pwrStateResidencyTicks::ON    504094500                       # Cumulative time (in ticks) in various power states (Tick)
system.cpu1.thread_0.numInsts                       0                       # Number of Instructions committed (Count)
system.cpu1.thread_0.numOps                         0                       # Number of Ops committed (Count)
system.cpu1.thread_0.numMemRefs                     0                       # Number of Memory References (Count)
system.cpu1.workload.numSyscalls                   15                       # Number of system calls (Count)
system.cpu_clk_domain.clock                       500                       # Clock period in ticks (Tick)
system.cpu_voltage_domain.voltage                   1                       # Voltage in Volts (Volt)
system.mem_ctrls.avgPriority_ruby.dir_cntrl0::samples      2304.00                       # Average QoS priority value for accepted requests (Count)
system.mem_ctrls.priorityMinLatency      0.000000018750                       # per QoS priority minimum request to response latency (Second)
system.mem_ctrls.priorityMaxLatency      0.000868113750                       # per QoS priority maximum request to response latency (Second)
system.mem_ctrls.numReadWriteTurnArounds           39                       # Number of turnarounds from READ to WRITE (Count)
system.mem_ctrls.numWriteReadTurnArounds           39                       # Number of turnarounds from WRITE to READ (Count)
system.mem_ctrls.numStayReadState                3979                       # Number of times bus staying in READ state (Count)
system.mem_ctrls.numStayWriteState                590                       # Number of times bus staying in WRITE state (Count)
system.mem_ctrls.readReqs                        1663                       # Number of read requests accepted (Count)
system.mem_ctrls.writeReqs                        647                       # Number of write requests accepted (Count)
system.mem_ctrls.readBursts                      1663                       # Number of controller read bursts, including those serviced by the write queue (Count)
system.mem_ctrls.writeBursts                      647                       # Number of controller write bursts, including those merged in the write queue (Count)
system.mem_ctrls.servicedByWrQ                      6                       # Number of controller read bursts serviced by the write queue (Count)
system.mem_ctrls.mergedWrBursts                     0                       # Number of controller write bursts merged with an existing one (Count)
system.mem_ctrls.neitherReadNorWriteReqs            0                       # Number of requests that are neither read nor write (Count)
system.mem_ctrls.avgRdQLen                       1.07                       # Average read queue length when enqueuing ((Count/Tick))
system.mem_ctrls.avgWrQLen                      20.59                       # Average write queue length when enqueuing ((Count/Tick))
system.mem_ctrls.numRdRetry                         0                       # Number of times read queue was full causing retry (Count)
system.mem_ctrls.numWrRetry                         0                       # Number of times write queue was full causing retry (Count)
system.mem_ctrls.readPktSize::0                     0                       # Read request sizes (log2) (Count)
system.mem_ctrls.readPktSize::1                     0                       # Read request sizes (log2) (Count)
system.mem_ctrls.readPktSize::2                     0                       # Read request sizes (log2) (Count)
system.mem_ctrls.readPktSize::3                     0                       # Read request sizes (log2) (Count)
system.mem_ctrls.readPktSize::4                     0                       # Read request sizes (log2) (Count)
system.mem_ctrls.readPktSize::5                     0                       # Read request sizes (log2) (Count)
system.mem_ctrls.readPktSize::6                  1663                       # Read request sizes (log2) (Count)
system.mem_ctrls.writePktSize::0                    0                       # Write request sizes (log2) (Count)
system.mem_ctrls.writePktSize::1                    0                       # Write request sizes (log2) (Count)
system.mem_ctrls.writePktSize::2                    0                       # Write request sizes (log2) (Count)
system.mem_ctrls.writePktSize::3                    0                       # Write request sizes (log2) (Count)
system.mem_ctrls.writePktSize::4                    0                       # Write request sizes (log2) (Count)
system.mem_ctrls.writePktSize::5                    0                       # Write request sizes (log2) (Count)
system.mem_ctrls.writePktSize::6                  647                       # Write request sizes (log2) (Count)
system.mem_ctrls.rdQLenPdf::0                    1108                       # What read queue length does an incoming req see (Count)
system.mem_ctrls.rdQLenPdf::1                     547                       # What read queue length does an incoming req see (Count)
system.mem_ctrls.rdQLenPdf::2                       2                       # What read queue length does an incoming req see (Count)
system.mem_ctrls.rdQLenPdf::3                       0                       # What read queue length does an incoming req see (Count)
system.mem_ctrls.rdQLenPdf::4                       0                       # What read queue length does an incoming req see (Count)
system.mem_ctrls.rdQLenPdf::5                       0                       # What read queue length does an incoming req see (Count)
system.mem_ctrls.rdQLenPdf::6                       0                       # What read queue length does an incoming req see (Count)
system.mem_ctrls.rdQLenPdf::7                       0                       # What read queue length does an incoming req see (Count)
system.mem_ctrls.rdQLenPdf::8                       0                       # What read queue length does an incoming req see (Count)
system.mem_ctrls.rdQLenPdf::9                       0                       # What read queue length does an incoming req see (Count)
system.mem_ctrls.rdQLenPdf::10                      0                       # What read queue length does an incoming req see (Count)
system.mem_ctrls.rdQLenPdf::11                      0                       # What read queue length does an incoming req see (Count)
system.mem_ctrls.rdQLenPdf::12                      0                       # What read queue length does an incoming req see (Count)
system.mem_ctrls.rdQLenPdf::13                      0                       # What read queue length does an incoming req see (Count)
system.mem_ctrls.rdQLenPdf::14                      0                       # What read queue length does an incoming req see (Count)
system.mem_ctrls.rdQLenPdf::15                      0                       # What read queue length does an incoming req see (Count)
system.mem_ctrls.rdQLenPdf::16                      0                       # What read queue length does an incoming req see (Count)
system.mem_ctrls.rdQLenPdf::17                      0                       # What read queue length does an incoming req see (Count)
system.mem_ctrls.rdQLenPdf::18                      0                       # What read queue length does an incoming req see (Count)
system.mem_ctrls.rdQLenPdf::19                      0                       # What read queue length does an incoming req see (Count)
system.mem_ctrls.rdQLenPdf::20                      0                       # What read queue length does an incoming req see (Count)
system.mem_ctrls.rdQLenPdf::21                      0                       # What read queue length does an incoming req see (Count)
system.mem_ctrls.rdQLenPdf::22                      0                       # What read queue length does an incoming req see (Count)
system.mem_ctrls.rdQLenPdf::23                      0                       # What read queue length does an incoming req see (Count)
system.mem_ctrls.rdQLenPdf::24                      0                       # What read queue length does an incoming req see (Count)
system.mem_ctrls.rdQLenPdf::25                      0                       # What read queue length does an incoming req see (Count)
system.mem_ctrls.rdQLenPdf::26                      0                       # What read queue length does an incoming req see (Count)
system.mem_ctrls.rdQLenPdf::27                      0                       # What read queue length does an incoming req see (Count)
system.mem_ctrls.rdQLenPdf::28                      0                       # What read queue length does an incoming req see (Count)
system.mem_ctrls.rdQLenPdf::29                      0                       # What read queue length does an incoming req see (Count)
system.mem_ctrls.rdQLenPdf::30                      0                       # What read queue length does an incoming req see (Count)
system.mem_ctrls.rdQLenPdf::31                      0                       # What read queue length does an incoming req see (Count)
system.mem_ctrls.wrQLenPdf::0                       1                       # What write queue length does an incoming req see (Count)
system.mem_ctrls.wrQLenPdf::1                       1                       # What write queue length does an incoming req see (Count)
system.mem_ctrls.wrQLenPdf::2                       1                       # What write queue length does an incoming req see (Count)
system.mem_ctrls.wrQLenPdf::3                       1                       # What write queue length does an incoming req see (Count)
system.mem_ctrls.wrQLenPdf::4                       1                       # What write queue length does an incoming req see (Count)
system.mem_ctrls.wrQLenPdf::5                       1                       # What write queue length does an incoming req see (Count)
system.mem_ctrls.wrQLenPdf::6                       1                       # What write queue length does an incoming req see (Count)
system.mem_ctrls.wrQLenPdf::7                       1                       # What write queue length does an incoming req see (Count)
system.mem_ctrls.wrQLenPdf::8                       1                       # What write queue length does an incoming req see (Count)
system.mem_ctrls.wrQLenPdf::9                       1                       # What write queue length does an incoming req see (Count)
system.mem_ctrls.wrQLenPdf::10                      1                       # What write queue length does an incoming req see (Count)
system.mem_ctrls.wrQLenPdf::11                      1                       # What write queue length does an incoming req see (Count)
system.mem_ctrls.wrQLenPdf::12                      1                       # What write queue length does an incoming req see (Count)
system.mem_ctrls.wrQLenPdf::13                      1                       # What write queue length does an incoming req see (Count)
system.mem_ctrls.wrQLenPdf::14                      1                       # What write queue length does an incoming req see (Count)
system.mem_ctrls.wrQLenPdf::15                      2                       # What write queue length does an incoming req see (Count)
system.mem_ctrls.wrQLenPdf::16                      4                       # What write queue length does an incoming req see (Count)
system.mem_ctrls.wrQLenPdf::17                     19                       # What write queue length does an incoming req see (Count)
system.mem_ctrls.wrQLenPdf::18                     41                       # What write queue length does an incoming req see (Count)
system.mem_ctrls.wrQLenPdf::19                     43                       # What write queue length does an incoming req see (Count)
system.mem_ctrls.wrQLenPdf::20                     42                       # What write queue length does an incoming req see (Count)
system.mem_ctrls.wrQLenPdf::21                     41                       # What write queue length does an incoming req see (Count)
system.mem_ctrls.wrQLenPdf::22                     41                       # What write queue length does an incoming req see (Count)
system.mem_ctrls.wrQLenPdf::23                     40                       # What write queue length does an incoming req see (Count)
system.mem_ctrls.wrQLenPdf::24                     43                       # What write queue length does an incoming req see (Count)
system.mem_ctrls.wrQLenPdf::25                     41                       # What write queue length does an incoming req see (Count)
system.mem_ctrls.wrQLenPdf::26                     39                       # What write queue length does an incoming req see (Count)
system.mem_ctrls.wrQLenPdf::27                     40                       # What write queue length does an incoming req see (Count)
system.mem_ctrls.wrQLenPdf::28                     39                       # What write queue length does an incoming req see (Count)
system.mem_ctrls.wrQLenPdf::29                     40                       # What write queue length does an incoming req see (Count)
system.mem_ctrls.wrQLenPdf::30                     39                       # What write queue length does an incoming req see (Count)
system.mem_ctrls.wrQLenPdf::31                     39                       # What write queue length does an incoming req see (Count)
system.mem_ctrls.wrQLenPdf::32                     39                       # What write queue length does an incoming req see (Count)
system.mem_ctrls.wrQLenPdf::33                      0                       # What write queue length does an incoming req see (Count)
system.mem_ctrls.wrQLenPdf::34                      0                       # What write queue length does an incoming req see (Count)
system.mem_ctrls.wrQLenPdf::35                      0                       # What write queue length does an incoming req see (Count)
system.mem_ctrls.wrQLenPdf::36                      0                       # What write queue length does an incoming req see (Count)
system.mem_ctrls.wrQLenPdf::37                      0                       # What write queue length does an incoming req see (Count)
system.mem_ctrls.wrQLenPdf::38                      0                       # What write queue length does an incoming req see (Count)
system.mem_ctrls.wrQLenPdf::39                      0                       # What write queue length does an incoming req see (Count)
system.mem_ctrls.wrQLenPdf::40                      0                       # What write queue length does an incoming req see (Count)
system.mem_ctrls.wrQLenPdf::41                      0                       # What write queue length does an incoming req see (Count)
system.mem_ctrls.wrQLenPdf::42                      0                       # What write queue length does an incoming req see (Count)
system.mem_ctrls.wrQLenPdf::43                      0                       # What write queue length does an incoming req see (Count)
system.mem_ctrls.wrQLenPdf::44                      0                       # What write queue length does an incoming req see (Count)
system.mem_ctrls.wrQLenPdf::45                      0                       # What write queue length does an incoming req see (Count)
system.mem_ctrls.wrQLenPdf::46                      0                       # What write queue length does an incoming req see (Count)
system.mem_ctrls.wrQLenPdf::47                      0                       # What write queue length does an incoming req see (Count)
system.mem_ctrls.wrQLenPdf::48                      0                       # What write queue length does an incoming req see (Count)
system.mem_ctrls.wrQLenPdf::49                      0                       # What write queue length does an incoming req see (Count)
system.mem_ctrls.wrQLenPdf::50                      0                       # What write queue length does an incoming req see (Count)
system.mem_ctrls.wrQLenPdf::51                      0                       # What write queue length does an incoming req see (Count)
system.mem_ctrls.wrQLenPdf::52                      0                       # What write queue length does an incoming req see (Count)
system.mem_ctrls.wrQLenPdf::53                      0                       # What write queue length does an incoming req see (Count)
system.mem_ctrls.wrQLenPdf::54                      0                       # What write queue length does an incoming req see (Count)
system.mem_ctrls.wrQLenPdf::55                      0                       # What write queue length does an incoming req see (Count)
system.mem_ctrls.wrQLenPdf::56                      0                       # What write queue length does an incoming req see (Count)
system.mem_ctrls.wrQLenPdf::57                      0                       # What write queue length does an incoming req see (Count)
system.mem_ctrls.wrQLenPdf::58                      0                       # What write queue length does an incoming req see (Count)
system.mem_ctrls.wrQLenPdf::59                      0                       # What write queue length does an incoming req see (Count)
system.mem_ctrls.wrQLenPdf::60                      0                       # What write queue length does an incoming req see (Count)
system.mem_ctrls.wrQLenPdf::61                      0                       # What write queue length does an incoming req see (Count)
system.mem_ctrls.wrQLenPdf::62                      0                       # What write queue length does an incoming req see (Count)
system.mem_ctrls.wrQLenPdf::63                      0                       # What write queue length does an incoming req see (Count)
system.mem_ctrls.rdPerTurnAround::samples           39                       # Reads before turning the bus around for writes (Count)
system.mem_ctrls.rdPerTurnAround::mean      42.435897                       # Reads before turning the bus around for writes (Count)
system.mem_ctrls.rdPerTurnAround::gmean     23.692277                       # Reads before turning the bus around for writes (Count)
system.mem_ctrls.rdPerTurnAround::stdev    116.916703                       # Reads before turning the bus around for writes (Count)
system.mem_ctrls.rdPerTurnAround::0-31             34     87.18%     87.18% # Reads before turning the bus around for writes (Count)
system.mem_ctrls.rdPerTurnAround::32-63             3      7.69%     94.87% # Reads before turning the bus around for writes (Count)
system.mem_ctrls.rdPerTurnAround::96-127            1      2.56%     97.44% # Reads before turning the bus around for writes (Count)
system.mem_ctrls.rdPerTurnAround::736-767            1      2.56%    100.00% # Reads before turning the bus around for writes (Count)
system.mem_ctrls.rdPerTurnAround::total            39                       # Reads before turning the bus around for writes (Count)
system.mem_ctrls.wrPerTurnAround::samples           39                       # Writes before turning the bus around for reads (Count)
system.mem_ctrls.wrPerTurnAround::mean      16.128205                       # Writes before turning the bus around for reads (Count)
system.mem_ctrls.wrPerTurnAround::gmean     16.119266                       # Writes before turning the bus around for reads (Count)
system.mem_ctrls.wrPerTurnAround::stdev      0.570295                       # Writes before turning the bus around for reads (Count)
system.mem_ctrls.wrPerTurnAround::16               37     94.87%     94.87% # Writes before turning the bus around for reads (Count)
system.mem_ctrls.wrPerTurnAround::18                1      2.56%     97.44% # Writes before turning the bus around for reads (Count)
system.mem_ctrls.wrPerTurnAround::19                1      2.56%    100.00% # Writes before turning the bus around for reads (Count)
system.mem_ctrls.wrPerTurnAround::total            39                       # Writes before turning the bus around for reads (Count)
system.mem_ctrls.bytesReadWrQ                     384                       # Total number of bytes read from write queue (Byte)
system.mem_ctrls.bytesReadSys                  106432                       # Total read bytes from the system interface side (Byte)
system.mem_ctrls.bytesWrittenSys                41408                       # Total written bytes from the system interface side (Byte)
system.mem_ctrls.avgRdBWSys              211135015.35922331                       # Average system read bandwidth in Byte/s ((Byte/Second))
system.mem_ctrls.avgWrBWSys              82143328.28467678                       # Average system write bandwidth in Byte/s ((Byte/Second))
system.mem_ctrls.totGap                     504044000                       # Total gap between requests (Tick)
system.mem_ctrls.avgGap                     218200.87                       # Average gap between requests ((Tick/Count))
system.mem_ctrls.requestorReadBytes::ruby.dir_cntrl0       106048                       # Per-requestor bytes read from memory (Byte)
system.mem_ctrls.requestorWriteBytes::ruby.dir_cntrl0        40256                       # Per-requestor bytes write to memory (Byte)
system.mem_ctrls.requestorReadRate::ruby.dir_cntrl0 210373253.427680701017                       # Per-requestor bytes read from memory rate ((Byte/Second))
system.mem_ctrls.requestorWriteRate::ruby.dir_cntrl0 79858042.490048989654                       # Per-requestor bytes write to memory rate ((Byte/Second))
system.mem_ctrls.requestorReadAccesses::ruby.dir_cntrl0         1663                       # Per-requestor read serviced memory accesses (Count)
system.mem_ctrls.requestorWriteAccesses::ruby.dir_cntrl0          647                       # Per-requestor write serviced memory accesses (Count)
system.mem_ctrls.requestorReadTotalLat::ruby.dir_cntrl0     52395000                       # Per-requestor read total memory access latency (Tick)
system.mem_ctrls.requestorWriteTotalLat::ruby.dir_cntrl0  10314670000                       # Per-requestor write total memory access latency (Tick)
system.mem_ctrls.requestorReadAvgLat::ruby.dir_cntrl0     31506.31                       # Per-requestor read average memory access latency ((Tick/Count))
system.mem_ctrls.requestorWriteAvgLat::ruby.dir_cntrl0  15942302.94                       # Per-requestor write average memory access latency ((Tick/Count))
system.mem_ctrls.dram.bytesRead::ruby.dir_cntrl0       106432                       # Number of bytes read from this memory (Byte)
system.mem_ctrls.dram.bytesRead::total         106432                       # Number of bytes read from this memory (Byte)
system.mem_ctrls.dram.bytesWritten::ruby.dir_cntrl0        41408                       # Number of bytes written to this memory (Byte)
system.mem_ctrls.dram.bytesWritten::total        41408                       # Number of bytes written to this memory (Byte)
system.mem_ctrls.dram.numReads::ruby.dir_cntrl0         1663                       # Number of read requests responded to by this memory (Count)
system.mem_ctrls.dram.numReads::total            1663                       # Number of read requests responded to by this memory (Count)
system.mem_ctrls.dram.numWrites::ruby.dir_cntrl0          647                       # Number of write requests responded to by this memory (Count)
system.mem_ctrls.dram.numWrites::total            647                       # Number of write requests responded to by this memory (Count)
system.mem_ctrls.dram.bwRead::ruby.dir_cntrl0    211135015                       # Total read bandwidth from this memory ((Byte/Second))
system.mem_ctrls.dram.bwRead::total         211135015                       # Total read bandwidth from this memory ((Byte/Second))
system.mem_ctrls.dram.bwWrite::ruby.dir_cntrl0     82143328                       # Write bandwidth from this memory ((Byte/Second))
system.mem_ctrls.dram.bwWrite::total         82143328                       # Write bandwidth from this memory ((Byte/Second))
system.mem_ctrls.dram.bwTotal::ruby.dir_cntrl0    293278344                       # Total bandwidth to/from this memory ((Byte/Second))
system.mem_ctrls.dram.bwTotal::total        293278344                       # Total bandwidth to/from this memory ((Byte/Second))
system.mem_ctrls.dram.readBursts                 1657                       # Number of DRAM read bursts (Count)
system.mem_ctrls.dram.writeBursts                 629                       # Number of DRAM write bursts (Count)
system.mem_ctrls.dram.perBankRdBursts::0          153                       # Per bank write bursts (Count)
system.mem_ctrls.dram.perBankRdBursts::1          161                       # Per bank write bursts (Count)
system.mem_ctrls.dram.perBankRdBursts::2          116                       # Per bank write bursts (Count)
system.mem_ctrls.dram.perBankRdBursts::3          107                       # Per bank write bursts (Count)
system.mem_ctrls.dram.perBankRdBursts::4           71                       # Per bank write bursts (Count)
system.mem_ctrls.dram.perBankRdBursts::5          111                       # Per bank write bursts (Count)
system.mem_ctrls.dram.perBankRdBursts::6          142                       # Per bank write bursts (Count)
system.mem_ctrls.dram.perBankRdBursts::7           42                       # Per bank write bursts (Count)
system.mem_ctrls.dram.perBankRdBursts::8           66                       # Per bank write bursts (Count)
system.mem_ctrls.dram.perBankRdBursts::9          123                       # Per bank write bursts (Count)
system.mem_ctrls.dram.perBankRdBursts::10           89                       # Per bank write bursts (Count)
system.mem_ctrls.dram.perBankRdBursts::11           59                       # Per bank write bursts (Count)
system.mem_ctrls.dram.perBankRdBursts::12           92                       # Per bank write bursts (Count)
system.mem_ctrls.dram.perBankRdBursts::13          160                       # Per bank write bursts (Count)
system.mem_ctrls.dram.perBankRdBursts::14          114                       # Per bank write bursts (Count)
system.mem_ctrls.dram.perBankRdBursts::15           51                       # Per bank write bursts (Count)
system.mem_ctrls.dram.perBankWrBursts::0           35                       # Per bank write bursts (Count)
system.mem_ctrls.dram.perBankWrBursts::1           74                       # Per bank write bursts (Count)
system.mem_ctrls.dram.perBankWrBursts::2           56                       # Per bank write bursts (Count)
system.mem_ctrls.dram.perBankWrBursts::3           31                       # Per bank write bursts (Count)
system.mem_ctrls.dram.perBankWrBursts::4           22                       # Per bank write bursts (Count)
system.mem_ctrls.dram.perBankWrBursts::5           32                       # Per bank write bursts (Count)
system.mem_ctrls.dram.perBankWrBursts::6           71                       # Per bank write bursts (Count)
system.mem_ctrls.dram.perBankWrBursts::7           23                       # Per bank write bursts (Count)
system.mem_ctrls.dram.perBankWrBursts::8           25                       # Per bank write bursts (Count)
system.mem_ctrls.dram.perBankWrBursts::9           61                       # Per bank write bursts (Count)
system.mem_ctrls.dram.perBankWrBursts::10           22                       # Per bank write bursts (Count)
system.mem_ctrls.dram.perBankWrBursts::11           13                       # Per bank write bursts (Count)
system.mem_ctrls.dram.perBankWrBursts::12           30                       # Per bank write bursts (Count)
system.mem_ctrls.dram.perBankWrBursts::13           60                       # Per bank write bursts (Count)
system.mem_ctrls.dram.perBankWrBursts::14           57                       # Per bank write bursts (Count)
system.mem_ctrls.dram.perBankWrBursts::15           17                       # Per bank write bursts (Count)
system.mem_ctrls.dram.totQLat                21326250                       # Total ticks spent queuing (Tick)
system.mem_ctrls.dram.totBusLat               8285000                       # Total ticks spent in databus transfers (Tick)
system.mem_ctrls.dram.totMemAccLat           52395000                       # Total ticks spent from burst creation until serviced by the DRAM (Tick)
system.mem_ctrls.dram.avgQLat                12870.40                       # Average queueing delay per DRAM burst ((Tick/Count))
system.mem_ctrls.dram.avgBusLat               5000.00                       # Average bus latency per DRAM burst ((Tick/Count))
system.mem_ctrls.dram.avgMemAccLat           31620.40                       # Average memory access latency per DRAM burst ((Tick/Count))
system.mem_ctrls.dram.readRowHits                1208                       # Number of row buffer hits during reads (Count)
system.mem_ctrls.dram.writeRowHits                378                       # Number of row buffer hits during writes (Count)
system.mem_ctrls.dram.readRowHitRate            72.90                       # Row buffer hit rate for reads (Ratio)
system.mem_ctrls.dram.writeRowHitRate           60.10                       # Row buffer hit rate for writes (Ratio)
system.mem_ctrls.dram.bytesPerActivate::samples          690                       # Bytes accessed per row activation (Byte)
system.mem_ctrls.dram.bytesPerActivate::mean   208.602899                       # Bytes accessed per row activation (Byte)
system.mem_ctrls.dram.bytesPerActivate::gmean   144.157721                       # Bytes accessed per row activation (Byte)
system.mem_ctrls.dram.bytesPerActivate::stdev   216.857317                       # Bytes accessed per row activation (Byte)
system.mem_ctrls.dram.bytesPerActivate::0-127          259     37.54%     37.54% # Bytes accessed per row activation (Byte)
system.mem_ctrls.dram.bytesPerActivate::128-255          236     34.20%     71.74% # Bytes accessed per row activation (Byte)
system.mem_ctrls.dram.bytesPerActivate::256-383           87     12.61%     84.35% # Bytes accessed per row activation (Byte)
system.mem_ctrls.dram.bytesPerActivate::384-511           42      6.09%     90.43% # Bytes accessed per row activation (Byte)
system.mem_ctrls.dram.bytesPerActivate::512-639           21      3.04%     93.48% # Bytes accessed per row activation (Byte)
system.mem_ctrls.dram.bytesPerActivate::640-767           14      2.03%     95.51% # Bytes accessed per row activation (Byte)
system.mem_ctrls.dram.bytesPerActivate::768-895            5      0.72%     96.23% # Bytes accessed per row activation (Byte)
system.mem_ctrls.dram.bytesPerActivate::896-1023            6      0.87%     97.10% # Bytes accessed per row activation (Byte)
system.mem_ctrls.dram.bytesPerActivate::1024-1151           20      2.90%    100.00% # Bytes accessed per row activation (Byte)
system.mem_ctrls.dram.bytesPerActivate::total          690                       # Bytes accessed per row activation (Byte)
system.mem_ctrls.dram.dramBytesRead            106048                       # Total bytes read (Byte)
system.mem_ctrls.dram.dramBytesWritten          40256                       # Total bytes written (Byte)
system.mem_ctrls.dram.avgRdBW              210.373253                       # Average DRAM read bandwidth in MiBytes/s ((Byte/Second))
system.mem_ctrls.dram.avgWrBW               79.858042                       # Average DRAM write bandwidth in MiBytes/s ((Byte/Second))
system.mem_ctrls.dram.peakBW                 12800.00                       # Theoretical peak bandwidth in MiByte/s ((Byte/Second))
system.mem_ctrls.dram.busUtil                    2.27                       # Data bus utilization in percentage (Ratio)
system.mem_ctrls.dram.busUtilRead                1.64                       # Data bus utilization in percentage for reads (Ratio)
system.mem_ctrls.dram.busUtilWrite               0.62                       # Data bus utilization in percentage for writes (Ratio)
system.mem_ctrls.dram.pageHitRate               69.38                       # Row buffer hit rate, read and write combined (Ratio)
system.mem_ctrls.dram.power_state.pwrStateResidencyTicks::UNDEFINED    504094500                       # Cumulative time (in ticks) in various power states (Tick)
system.mem_ctrls.dram.rank0.actEnergy         2656080                       # Energy for activate commands per rank (pJ) (Joule)
system.mem_ctrls.dram.rank0.preEnergy         1392765                       # Energy for precharge commands per rank (pJ) (Joule)
system.mem_ctrls.dram.rank0.readEnergy        6447420                       # Energy for read commands per rank (pJ) (Joule)
system.mem_ctrls.dram.rank0.writeEnergy       1795680                       # Energy for write commands per rank (pJ) (Joule)
system.mem_ctrls.dram.rank0.refreshEnergy 39336960.000000                       # Energy for refresh commands per rank (pJ) (Joule)
system.mem_ctrls.dram.rank0.actBackEnergy     39859530                       # Energy for active background per rank (pJ) (Joule)
system.mem_ctrls.dram.rank0.preBackEnergy    160006560                       # Energy for precharge background per rank (pJ) (Joule)
system.mem_ctrls.dram.rank0.actPowerDownEnergy            0                       # Energy for active power-down per rank (pJ) (Joule)
system.mem_ctrls.dram.rank0.prePowerDownEnergy            0                       # Energy for precharge power-down per rank (pJ) (Joule)
system.mem_ctrls.dram.rank0.selfRefreshEnergy            0                       # Energy for self refresh per rank (pJ) (Joule)
system.mem_ctrls.dram.rank0.totalEnergy     251494995                       # Total energy per rank (pJ) (Joule)
system.mem_ctrls.dram.rank0.averagePower   498.904461                       # Core power per rank (mW) (Watt)
system.mem_ctrls.dram.rank0.totalIdleTime            0                       # Total Idle time Per DRAM Rank (Tick)
system.mem_ctrls.dram.rank0.pwrStateTime::IDLE    415679500                       # Time in different power states (Tick)
system.mem_ctrls.dram.rank0.pwrStateTime::REF     16640000                       # Time in different power states (Tick)
system.mem_ctrls.dram.rank0.pwrStateTime::SREF            0                       # Time in different power states (Tick)
system.mem_ctrls.dram.rank0.pwrStateTime::PRE_PDN            0                       # Time in different power states (Tick)
system.mem_ctrls.dram.rank0.pwrStateTime::ACT     71775000                       # Time in different power states (Tick)
system.mem_ctrls.dram.rank0.pwrStateTime::ACT_PDN            0                       # Time in different power states (Tick)
system.mem_ctrls.dram.rank1.actEnergy         2341920                       # Energy for activate commands per rank (pJ) (Joule)
system.mem_ctrls.dram.rank1.preEnergy         1225785                       # Energy for precharge commands per rank (pJ) (Joule)
system.mem_ctrls.dram.rank1.readEnergy        5383560                       # Energy for read commands per rank (pJ) (Joule)
system.mem_ctrls.dram.rank1.writeEnergy       1487700                       # Energy for write commands per rank (pJ) (Joule)
system.mem_ctrls.dram.rank1.refreshEnergy 39336960.000000                       # Energy for refresh commands per rank (pJ) (Joule)
system.mem_ctrls.dram.rank1.actBackEnergy     39639510                       # Energy for active background per rank (pJ) (Joule)
system.mem_ctrls.dram.rank1.preBackEnergy    160191840                       # Energy for precharge background per rank (pJ) (Joule)
system.mem_ctrls.dram.rank1.actPowerDownEnergy            0                       # Energy for active power-down per rank (pJ) (Joule)
system.mem_ctrls.dram.rank1.prePowerDownEnergy            0                       # Energy for precharge power-down per rank (pJ) (Joule)
system.mem_ctrls.dram.rank1.selfRefreshEnergy            0                       # Energy for self refresh per rank (pJ) (Joule)
system.mem_ctrls.dram.rank1.totalEnergy     249607275                       # Total energy per rank (pJ) (Joule)
system.mem_ctrls.dram.rank1.averagePower   495.159687                       # Core power per rank (mW) (Watt)
system.mem_ctrls.dram.rank1.totalIdleTime            0                       # Total Idle time Per DRAM Rank (Tick)
system.mem_ctrls.dram.rank1.pwrStateTime::IDLE    416160500                       # Time in different power states (Tick)
system.mem_ctrls.dram.rank1.pwrStateTime::REF     16640000                       # Time in different power states (Tick)
system.mem_ctrls.dram.rank1.pwrStateTime::SREF            0                       # Time in different power states (Tick)
system.mem_ctrls.dram.rank1.pwrStateTime::PRE_PDN            0                       # Time in different power states (Tick)
system.mem_ctrls.dram.rank1.pwrStateTime::ACT     71294000                       # Time in different power states (Tick)
system.mem_ctrls.dram.rank1.pwrStateTime::ACT_PDN            0                       # Time in different power states (Tick)
system.mem_ctrls.power_state.pwrStateResidencyTicks::UNDEFINED    504094500                       # Cumulative time (in ticks) in various power states (Tick)
system.ruby.delayHistogram::bucket_size             2                       # delay histogram for all message (Unspecified)
system.ruby.delayHistogram::max_bucket             19                       # delay histogram for all message (Unspecified)
system.ruby.delayHistogram::samples             42364                       # delay histogram for all message (Unspecified)
system.ruby.delayHistogram::mean             0.002124                       # delay histogram for all message (Unspecified)
system.ruby.delayHistogram::stdev            0.120958                       # delay histogram for all message (Unspecified)
system.ruby.delayHistogram               |       42342     99.95%     99.95% |          10      0.02%     99.97% |           7      0.02%     99.99% |           4      0.01%    100.00% |           0      0.00%    100.00% |           0      0.00%    100.00% |           0      0.00%    100.00% |           0      0.00%    100.00% |           0      0.00%    100.00% |           1      0.00%    100.00% # delay histogram for all message (Unspecified)
system.ruby.delayHistogram::total               42364                       # delay histogram for all message (Unspecified)
system.ruby.m_outstandReqHistSeqr::bucket_size            1                       (Unspecified)
system.ruby.m_outstandReqHistSeqr::max_bucket            9                       (Unspecified)
system.ruby.m_outstandReqHistSeqr::samples       466065                       (Unspecified)
system.ruby.m_outstandReqHistSeqr::mean      1.000017                       (Unspecified)
system.ruby.m_outstandReqHistSeqr::gmean     1.000012                       (Unspecified)
system.ruby.m_outstandReqHistSeqr::stdev     0.004143                       (Unspecified)
system.ruby.m_outstandReqHistSeqr        |           0      0.00%      0.00% |      466057    100.00%    100.00% |           8      0.00%    100.00% |           0      0.00%    100.00% |           0      0.00%    100.00% |           0      0.00%    100.00% |           0      0.00%    100.00% |           0      0.00%    100.00% |           0      0.00%    100.00% |           0      0.00%    100.00% (Unspecified)
system.ruby.m_outstandReqHistSeqr::total       466065                       (Unspecified)
system.ruby.m_latencyHistSeqr::bucket_size          128                       (Unspecified)
system.ruby.m_latencyHistSeqr::max_bucket         1279                       (Unspecified)
system.ruby.m_latencyHistSeqr::samples         466065                       (Unspecified)
system.ruby.m_latencyHistSeqr::mean          3.325982                       (Unspecified)
system.ruby.m_latencyHistSeqr::gmean         1.197830                       (Unspecified)
system.ruby.m_latencyHistSeqr::stdev        12.061186                       (Unspecified)
[...]
system.ruby.network.routers1.throttle00.total_msg_wait_time            0                       # Total time spend forwarding messages (Tick)
system.ruby.network.routers1.throttle00.total_stall_cy            0                       # Total time spent blocked on any output link (Cycle)
system.ruby.network.routers1.throttle00.total_bw_sat_cy        43208                       # Total time bandwidth was saturated on any output link (Cycle)
system.ruby.network.routers1.throttle00.avg_msg_wait_time            0                       # Average time a message took to be forwarded (Ratio)
system.ruby.network.routers1.throttle00.avg_bandwidth         1.59                       # Average bandwidth (GB/s) (Ratio)
system.ruby.network.routers1.throttle00.avg_useful_bandwidth         1.28                       # Average useful (only data) bandwidth (GB/s) (Ratio)
system.ruby.network.routers1.throttle00.msg_count.Response_Data::4        10802                       (Unspecified)
system.ruby.network.routers1.throttle00.msg_bytes.Response_Data::4       777744                       (Unspecified)
system.ruby.network.routers1.throttle00.msg_count.Writeback_Control::3        10295                       (Unspecified)
system.ruby.network.routers1.throttle00.msg_bytes.Writeback_Control::3        82360                       (Unspecified)
system.ruby.network.routers1.throttle01.acc_link_utilization 51728.500000                       # Accumulated link utilization system.ruby.network.int_links1 (Count)
system.ruby.network.routers1.throttle01.link_utilization     5.130834                       # Average link utilization (Ratio)
system.ruby.network.routers1.throttle01.total_msg_count        21097                       # Total number of messages forwarded by this switch (Count)
system.ruby.network.routers1.throttle01.total_msg_bytes       827656                       # Total number of bytes forwarded by this switch (Byte)
system.ruby.network.routers1.throttle01.total_data_msg_bytes       658880                       # Total number of data bytes forwarded by this switch (Byte)
system.ruby.network.routers1.throttle01.total_msg_wait_time       566500                       # Total time spend forwarding messages (Tick)
system.ruby.network.routers1.throttle01.total_stall_cy            0                       # Total time spent blocked on any output link (Cycle)
system.ruby.network.routers1.throttle01.total_bw_sat_cy        41181                       # Total time bandwidth was saturated on any output link (Cycle)
system.ruby.network.routers1.throttle01.avg_msg_wait_time    26.852159                       # Average time a message took to be forwarded (Ratio)
system.ruby.network.routers1.throttle01.avg_bandwidth         1.53                       # Average bandwidth (GB/s) (Ratio)
system.ruby.network.routers1.throttle01.avg_useful_bandwidth         1.22                       # Average useful (only data) bandwidth (GB/s) (Ratio)
system.ruby.network.routers1.throttle01.msg_count.Control::2        10802                       (Unspecified)
system.ruby.network.routers1.throttle01.msg_bytes.Control::2        86416                       (Unspecified)
system.ruby.network.routers1.throttle01.msg_count.Data::2          282                       (Unspecified)
system.ruby.network.routers1.throttle01.msg_bytes.Data::2        20304                       (Unspecified)
system.ruby.network.routers1.throttle01.msg_count.Response_Data::4        10013                       (Unspecified)
system.ruby.network.routers1.throttle01.msg_bytes.Response_Data::4       720936                       (Unspecified)
system.ruby.network.routers2.percent_links_utilized     1.566026                       (Unspecified)
system.ruby.network.routers2.msg_count.Control::2        21690                       (Unspecified)
system.ruby.network.routers2.msg_bytes.Control::2       173520                       (Unspecified)
system.ruby.network.routers2.msg_count.Data::2          647                       (Unspecified)
system.ruby.network.routers2.msg_bytes.Data::2        46584                       (Unspecified)
system.ruby.network.routers2.msg_count.Response_Data::4         1663                       (Unspecified)
system.ruby.network.routers2.msg_bytes.Response_Data::4       119736                       (Unspecified)
system.ruby.network.routers2.msg_count.Writeback_Control::3        20674                       (Unspecified)
system.ruby.network.routers2.msg_bytes.Writeback_Control::3       165392                       (Unspecified)
system.ruby.network.routers2.port_buffers2.m_msg_count        22337                       # Number of messages passed the buffer (Count)
system.ruby.network.routers2.port_buffers2.m_buf_msgs     0.022156                       # Average number of messages in buffer ((Count/Tick))
system.ruby.network.routers2.port_buffers8.m_msg_count        20674                       # Number of messages passed the buffer (Count)
system.ruby.network.routers2.port_buffers8.m_buf_msgs     0.020549                       # Average number of messages in buffer ((Count/Tick))
system.ruby.network.routers2.port_buffers8.m_stall_time        21500                       # Total number of ticks messages were stalled in this buffer (Tick)
system.ruby.network.routers2.port_buffers8.m_avg_stall_time     1.039954                       # Average stall ticks per message ((Tick/Count))
system.ruby.network.routers2.port_buffers9.m_msg_count         1663                       # Number of messages passed the buffer (Count)
system.ruby.network.routers2.port_buffers9.m_buf_msgs     0.001651                       # Average number of messages in buffer ((Count/Tick))
system.ruby.network.routers2.port_buffers9.m_stall_time         1000                       # Total number of ticks messages were stalled in this buffer (Tick)
system.ruby.network.routers2.port_buffers9.m_avg_stall_time     0.601323                       # Average stall ticks per message ((Tick/Count))
system.ruby.network.routers2.power_state.pwrStateResidencyTicks::UNDEFINED    504094500                       # Cumulative time (in ticks) in various power states (Tick)
system.ruby.network.routers2.throttle00.acc_link_utilization 13756.500000                       # Accumulated link utilization system.ruby.network.ext_links2 (Count)
system.ruby.network.routers2.throttle00.link_utilization     1.364476                       # Average link utilization (Ratio)
system.ruby.network.routers2.throttle00.total_msg_count        22337                       # Total number of messages forwarded by this switch (Count)
system.ruby.network.routers2.throttle00.total_msg_bytes       220104                       # Total number of bytes forwarded by this switch (Byte)
system.ruby.network.routers2.throttle00.total_data_msg_bytes        41408                       # Total number of data bytes forwarded by this switch (Byte)
system.ruby.network.routers2.throttle00.total_msg_wait_time            0                       # Total time spend forwarding messages (Tick)
system.ruby.network.routers2.throttle00.total_stall_cy            0                       # Total time spent blocked on any output link (Cycle)
system.ruby.network.routers2.throttle00.total_bw_sat_cy         2588                       # Total time bandwidth was saturated on any output link (Cycle)
system.ruby.network.routers2.throttle00.avg_msg_wait_time            0                       # Average time a message took to be forwarded (Ratio)
system.ruby.network.routers2.throttle00.avg_bandwidth         0.41                       # Average bandwidth (GB/s) (Ratio)
system.ruby.network.routers2.throttle00.avg_useful_bandwidth         0.08                       # Average useful (only data) bandwidth (GB/s) (Ratio)
system.ruby.network.routers2.throttle00.msg_count.Control::2        21690                       (Unspecified)
system.ruby.network.routers2.throttle00.msg_bytes.Control::2       173520                       (Unspecified)
system.ruby.network.routers2.throttle00.msg_count.Data::2          647                       (Unspecified)
system.ruby.network.routers2.throttle00.msg_bytes.Data::2        46584                       (Unspecified)
system.ruby.network.routers2.throttle01.acc_link_utilization 17820.500000                       # Accumulated link utilization system.ruby.network.int_links2 (Count)
system.ruby.network.routers2.throttle01.link_utilization     1.767575                       # Average link utilization (Ratio)
system.ruby.network.routers2.throttle01.total_msg_count        22337                       # Total number of messages forwarded by this switch (Count)
system.ruby.network.routers2.throttle01.total_msg_bytes       285128                       # Total number of bytes forwarded by this switch (Byte)
system.ruby.network.routers2.throttle01.total_data_msg_bytes       106432                       # Total number of data bytes forwarded by this switch (Byte)
system.ruby.network.routers2.throttle01.total_msg_wait_time        22500                       # Total time spend forwarding messages (Tick)
system.ruby.network.routers2.throttle01.total_stall_cy            0                       # Total time spent blocked on any output link (Cycle)
system.ruby.network.routers2.throttle01.total_bw_sat_cy         6653                       # Total time bandwidth was saturated on any output link (Cycle)
system.ruby.network.routers2.throttle01.avg_msg_wait_time     1.007297                       # Average time a message took to be forwarded (Ratio)
system.ruby.network.routers2.throttle01.avg_bandwidth         0.53                       # Average bandwidth (GB/s) (Ratio)
system.ruby.network.routers2.throttle01.avg_useful_bandwidth         0.20                       # Average useful (only data) bandwidth (GB/s) (Ratio)
system.ruby.network.routers2.throttle01.msg_count.Response_Data::4         1663                       (Unspecified)
system.ruby.network.routers2.throttle01.msg_bytes.Response_Data::4       119736                       (Unspecified)
system.ruby.network.routers2.throttle01.msg_count.Writeback_Control::3        20674                       (Unspecified)
system.ruby.network.routers2.throttle01.msg_bytes.Writeback_Control::3       165392                       (Unspecified)
system.ruby.network.routers3.percent_links_utilized     4.023667                       (Unspecified)
system.ruby.network.routers3.msg_count.Control::2        21690                       (Unspecified)
system.ruby.network.routers3.msg_bytes.Control::2       173520                       (Unspecified)
system.ruby.network.routers3.msg_count.Data::2          647                       (Unspecified)
system.ruby.network.routers3.msg_bytes.Data::2        46584                       (Unspecified)
system.ruby.network.routers3.msg_count.Response_Data::4        21690                       (Unspecified)
system.ruby.network.routers3.msg_bytes.Response_Data::4      1561680                       (Unspecified)
system.ruby.network.routers3.msg_count.Writeback_Control::3        20674                       (Unspecified)
system.ruby.network.routers3.msg_bytes.Writeback_Control::3       165392                       (Unspecified)
system.ruby.network.routers3.port_buffers12.m_msg_count        22337                       # Number of messages passed the buffer (Count)
system.ruby.network.routers3.port_buffers12.m_buf_msgs     0.022239                       # Average number of messages in buffer ((Count/Tick))
system.ruby.network.routers3.port_buffers12.m_stall_time        42000                       # Total number of ticks messages were stalled in this buffer (Tick)
system.ruby.network.routers3.port_buffers12.m_avg_stall_time     1.880288                       # Average stall ticks per message ((Tick/Count))
system.ruby.network.routers3.port_buffers3.m_msg_count        10379                       # Number of messages passed the buffer (Count)
system.ruby.network.routers3.port_buffers3.m_buf_msgs     0.010295                       # Average number of messages in buffer ((Count/Tick))
system.ruby.network.routers3.port_buffers4.m_msg_count        10888                       # Number of messages passed the buffer (Count)
system.ruby.network.routers3.port_buffers4.m_buf_msgs     0.010800                       # Average number of messages in buffer ((Count/Tick))
system.ruby.network.routers3.port_buffers8.m_msg_count        10295                       # Number of messages passed the buffer (Count)
system.ruby.network.routers3.port_buffers8.m_buf_msgs     0.010211                       # Average number of messages in buffer ((Count/Tick))
system.ruby.network.routers3.port_buffers9.m_msg_count        10802                       # Number of messages passed the buffer (Count)
system.ruby.network.routers3.port_buffers9.m_buf_msgs     0.010714                       # Average number of messages in buffer ((Count/Tick))
system.ruby.network.routers3.power_state.pwrStateResidencyTicks::UNDEFINED    504094500                       # Cumulative time (in ticks) in various power states (Tick)
system.ruby.network.routers3.throttle00.acc_link_utilization 54185.500000                       # Accumulated link utilization system.ruby.network.int_links3 (Count)
system.ruby.network.routers3.throttle00.link_utilization     5.374538                       # Average link utilization (Ratio)
system.ruby.network.routers3.throttle00.total_msg_count        21267                       # Total number of messages forwarded by this switch (Count)
system.ruby.network.routers3.throttle00.total_msg_bytes       866968                       # Total number of bytes forwarded by this switch (Byte)
system.ruby.network.routers3.throttle00.total_data_msg_bytes       696832                       # Total number of data bytes forwarded by this switch (Byte)
system.ruby.network.routers3.throttle00.total_msg_wait_time            0                       # Total time spend forwarding messages (Tick)
system.ruby.network.routers3.throttle00.total_stall_cy            0                       # Total time spent blocked on any output link (Cycle)
system.ruby.network.routers3.throttle00.total_bw_sat_cy        43552                       # Total time bandwidth was saturated on any output link (Cycle)
system.ruby.network.routers3.throttle00.avg_msg_wait_time            0                       # Average time a message took to be forwarded (Ratio)
system.ruby.network.routers3.throttle00.avg_bandwidth         1.60                       # Average bandwidth (GB/s) (Ratio)
system.ruby.network.routers3.throttle00.avg_useful_bandwidth         1.29                       # Average useful (only data) bandwidth (GB/s) (Ratio)
system.ruby.network.routers3.throttle00.msg_count.Response_Data::4        10888                       (Unspecified)
system.ruby.network.routers3.throttle00.msg_bytes.Response_Data::4       783936                       (Unspecified)
system.ruby.network.routers3.throttle00.msg_count.Writeback_Control::3        10379                       (Unspecified)
system.ruby.network.routers3.throttle00.msg_bytes.Writeback_Control::3        83032                       (Unspecified)
system.ruby.network.routers3.throttle01.acc_link_utilization 53756.500000                       # Accumulated link utilization system.ruby.network.int_links4 (Count)
system.ruby.network.routers3.throttle01.link_utilization     5.331986                       # Average link utilization (Ratio)
system.ruby.network.routers3.throttle01.total_msg_count        21097                       # Total number of messages forwarded by this switch (Count)
system.ruby.network.routers3.throttle01.total_msg_bytes       860104                       # Total number of bytes forwarded by this switch (Byte)
system.ruby.network.routers3.throttle01.total_data_msg_bytes       691328                       # Total number of data bytes forwarded by this switch (Byte)
system.ruby.network.routers3.throttle01.total_msg_wait_time            0                       # Total time spend forwarding messages (Tick)
system.ruby.network.routers3.throttle01.total_stall_cy            0                       # Total time spent blocked on any output link (Cycle)
system.ruby.network.routers3.throttle01.total_bw_sat_cy        43208                       # Total time bandwidth was saturated on any output link (Cycle)
system.ruby.network.routers3.throttle01.avg_msg_wait_time            0                       # Average time a message took to be forwarded (Ratio)
system.ruby.network.routers3.throttle01.avg_bandwidth         1.59                       # Average bandwidth (GB/s) (Ratio)
system.ruby.network.routers3.throttle01.avg_useful_bandwidth         1.28                       # Average useful (only data) bandwidth (GB/s) (Ratio)
system.ruby.network.routers3.throttle01.msg_count.Response_Data::4        10802                       (Unspecified)
system.ruby.network.routers3.throttle01.msg_bytes.Response_Data::4       777744                       (Unspecified)
system.ruby.network.routers3.throttle01.msg_count.Writeback_Control::3        10295                       (Unspecified)
system.ruby.network.routers3.throttle01.msg_bytes.Writeback_Control::3        82360                       (Unspecified)
system.ruby.network.routers3.throttle02.acc_link_utilization 13756.500000                       # Accumulated link utilization system.ruby.network.int_links5 (Count)
system.ruby.network.routers3.throttle02.link_utilization     1.364476                       # Average link utilization (Ratio)
system.ruby.network.routers3.throttle02.total_msg_count        22337                       # Total number of messages forwarded by this switch (Count)
system.ruby.network.routers3.throttle02.total_msg_bytes       220104                       # Total number of bytes forwarded by this switch (Byte)
system.ruby.network.routers3.throttle02.total_data_msg_bytes        41408                       # Total number of data bytes forwarded by this switch (Byte)
system.ruby.network.routers3.throttle02.total_msg_wait_time        42000                       # Total time spend forwarding messages (Tick)
system.ruby.network.routers3.throttle02.total_stall_cy            0                       # Total time spent blocked on any output link (Cycle)
system.ruby.network.routers3.throttle02.total_bw_sat_cy         2599                       # Total time bandwidth was saturated on any output link (Cycle)
system.ruby.network.routers3.throttle02.avg_msg_wait_time     1.880288                       # Average time a message took to be forwarded (Ratio)
system.ruby.network.routers3.throttle02.avg_bandwidth         0.41                       # Average bandwidth (GB/s) (Ratio)
system.ruby.network.routers3.throttle02.avg_useful_bandwidth         0.08                       # Average useful (only data) bandwidth (GB/s) (Ratio)
system.ruby.network.routers3.throttle02.msg_count.Control::2        21690                       (Unspecified)
system.ruby.network.routers3.throttle02.msg_bytes.Control::2       173520                       (Unspecified)
system.ruby.network.routers3.throttle02.msg_count.Data::2          647                       (Unspecified)
system.ruby.network.routers3.throttle02.msg_bytes.Data::2        46584                       (Unspecified)
system.ruby.power_state.pwrStateResidencyTicks::UNDEFINED    504094500                       # Cumulative time (in ticks) in various power states (Tick)
system.sys_port_proxy.power_state.pwrStateResidencyTicks::UNDEFINED    504094500                       # Cumulative time (in ticks) in various power states (Tick)
system.voltage_domain.voltage                       1                       # Voltage in Volts (Volt)
system.workload.inst.arm                            0                       # number of arm instructions executed (Count)
system.workload.inst.quiesce                        0                       # number of quiesce instructions executed (Count)

---------- End Simulation Statistics   ----------
