
---------- Begin Simulation Statistics ----------
simSeconds                                   0.002481                       # Number of seconds simulated (Second)
simTicks                                   2481305500                       # Number of ticks simulated (Tick)
finalTick                                  2481305500                       # Number of ticks from beginning of simulation (restored from checkpoints and never reset) (Tick)
simFreq                                  1000000000000                       # The number of ticks per simulated second ((Tick/Second))
hostSeconds                                     11.49                       # Real time elapsed on the host (Second)
hostTickRate                                215952504                       # The number of ticks simulated per host second (ticks/s) ((Tick/Second))
hostMemory                                    2718932                       # Number of bytes of host memory used (Byte)
simInsts                                      2964168                       # Number of instructions simulated (Count)
simOps                                        5995988                       # Number of ops (including micro ops) simulated (Count)
hostInstRate                                   257975                       # Simulator instruction rate (inst/s) ((Count/Second))
hostOpRate                                     521838                       # Simulator op (including micro ops) rate (op/s) ((Count/Second))
system.clk_domain.clock                          1000                       # Clock period in ticks (Tick)
system.cpu0.numCycles                         4962611                       # Number of cpu cycles simulated (Cycle)
system.cpu0.cpi                             35.048420                       # CPI: cycles per instruction (core level) ((Cycle/Count))
system.cpu0.ipc                              0.028532                       # IPC: instructions per cycle (core level) ((Count/Cycle))
system.cpu0.numWorkItemsStarted                     0                       # Number of work items this cpu started (Count)
system.cpu0.numWorkItemsCompleted                   0                       # Number of work items this cpu completed (Count)
system.cpu0.commitStats0.numInsts              141593                       # Number of instructions committed (thread level) (Count)
system.cpu0.commitStats0.numOps                271971                       # Number of ops (including micro ops) committed (thread level) (Count)
system.cpu0.commitStats0.numInstsNotNOP             0                       # Number of instructions committed excluding NOPs or prefetches (Count)
system.cpu0.commitStats0.numOpsNotNOP               0                       # Number of Ops (including micro ops) Simulated (Count)
system.cpu0.commitStats0.cpi                35.048420                       # CPI: cycles per instruction (thread level) ((Cycle/Count))
system.cpu0.commitStats0.ipc                 0.028532                       # IPC: instructions per cycle (thread level) ((Count/Cycle))
system.cpu0.commitStats0.numMemRefs                 0                       # Number of memory references committed (Count)
system.cpu0.commitStats0.numFpInsts              1354                       # Number of float instructions (Count)
system.cpu0.commitStats0.numIntInsts           271110                       # Number of integer instructions (Count)
system.cpu0.commitStats0.numLoadInsts           11962                       # Number of load instructions (Count)
system.cpu0.commitStats0.numStoreInsts          12550                       # Number of store instructions (Count)
system.cpu0.commitStats0.numVecInsts                0                       # Number of vector instructions (Count)
system.cpu0.commitStats0.committedInstType::No_OpClass          209      0.08%      0.08% # Class of committed instruction. (Count)
system.cpu0.commitStats0.committedInstType::IntAlu       246663     90.69%     90.77% # Class of committed instruction. (Count)
system.cpu0.commitStats0.committedInstType::IntMult           13      0.00%     90.78% # Class of committed instruction. (Count)
system.cpu0.commitStats0.committedInstType::IntDiv           21      0.01%     90.78% # Class of committed instruction. (Count)
system.cpu0.commitStats0.committedInstType::FloatAdd          172      0.06%     90.85% # Class of committed instruction. (Count)
system.cpu0.commitStats0.committedInstType::FloatCmp            0      0.00%     90.85% # Class of committed instruction. (Count)
system.cpu0.commitStats0.committedInstType::FloatCvt            0      0.00%     90.85% # Class of committed instruction. (Count)
system.cpu0.commitStats0.committedInstType::FloatMult            0      0.00%     90.85% # Class of committed instruction. (Count)
system.cpu0.commitStats0.committedInstType::FloatMultAcc            0      0.00%     90.85% # Class of committed instruction. (Count)
system.cpu0.commitStats0.committedInstType::FloatDiv            0      0.00%     90.85% # Class of committed instruction. (Count)
system.cpu0.commitStats0.committedInstType::FloatMisc            0      0.00%     90.85% # Class of committed instruction. (Count)
system.cpu0.commitStats0.committedInstType::FloatSqrt            0      0.00%     90.85% # Class of committed instruction. (Count)
system.cpu0.commitStats0.committedInstType::SimdAdd            8      0.00%     90.85% # Class of committed instruction. (Count)
system.cpu0.commitStats0.committedInstType::SimdAddAcc            0      0.00%     90.85% # Class of committed instruction. (Count)
system.cpu0.commitStats0.committedInstType::SimdAlu           96      0.04%     90.89% # Class of committed instruction. (Count)
system.cpu0.commitStats0.committedInstType::SimdCmp            0      0.00%     90.89% # Class of committed instruction. (Count)
system.cpu0.commitStats0.committedInstType::SimdCvt           48      0.02%     90.90% # Class of committed instruction. (Count)
system.cpu0.commitStats0.committedInstType::SimdMisc          229      0.08%     90.99% # Class of committed instruction. (Count)
system.cpu0.commitStats0.committedInstType::SimdMult            0      0.00%     90.99% # Class of committed instruction. (Count)
system.cpu0.commitStats0.committedInstType::SimdMultAcc            0      0.00%     90.99% # Class of committed instruction. (Count)
system.cpu0.commitStats0.committedInstType::SimdMatMultAcc            0      0.00%     90.99% # Class of committed instruction. (Count)
system.cpu0.commitStats0.committedInstType::SimdShift            0      0.00%     90.99% # Class of committed instruction. (Count)
system.cpu0.commitStats0.committedInstType::SimdShiftAcc            0      0.00%     90.99% # Class of committed instruction. (Count)
system.cpu0.commitStats0.committedInstType::SimdDiv            0      0.00%     90.99% # Class of committed instruction. (Count)
system.cpu0.commitStats0.committedInstType::SimdSqrt            0      0.00%     90.99% # Class of committed instruction. (Count)
system.cpu0.commitStats0.committedInstType::SimdFloatAdd            0      0.00%     90.99% # Class of committed instruction. (Count)
system.cpu0.commitStats0.committedInstType::SimdFloatAlu            0      0.00%     90.99% # Class of committed instruction. (Count)
system.cpu0.commitStats0.committedInstType::SimdFloatCmp            0      0.00%     90.99% # Class of committed instruction. (Count)
system.cpu0.commitStats0.committedInstType::SimdFloatCvt            0      0.00%     90.99% # Class of committed instruction. (Count)
system.cpu0.commitStats0.committedInstType::SimdFloatDiv            0      0.00%     90.99% # Class of committed instruction. (Count)
system.cpu0.commitStats0.committedInstType::SimdFloatMisc            0      0.00%     90.99% # Class of committed instruction. (Count)
system.cpu0.commitStats0.committedInstType::SimdFloatMult            0      0.00%     90.99% # Class of committed instruction. (Count)
system.cpu0.commitStats0.committedInstType::SimdFloatMultAcc            0      0.00%     90.99% # Class of committed instruction. (Count)
system.cpu0.commitStats0.committedInstType::SimdFloatMatMultAcc            0      0.00%     90.99% # Class of committed instruction. (Count)
system.cpu0.commitStats0.committedInstType::SimdFloatSqrt            0      0.00%     90.99% # Class of committed instruction. (Count)
system.cpu0.commitStats0.committedInstType::SimdReduceAdd            0      0.00%     90.99% # Class of committed instruction. (Count)
system.cpu0.commitStats0.committedInstType::SimdReduceAlu            0      0.00%     90.99% # Class of committed instruction. (Count)
system.cpu0.commitStats0.committedInstType::SimdReduceCmp            0      0.00%     90.99% # Class of committed instruction. (Count)
system.cpu0.commitStats0.committedInstType::SimdFloatReduceAdd            0      0.00%     90.99% # Class of committed instruction. (Count)
system.cpu0.commitStats0.committedInstType::SimdFloatReduceCmp            0      0.00%     90.99% # Class of committed instruction. (Count)
system.cpu0.commitStats0.committedInstType::SimdAes            0      0.00%     90.99% # Class of committed instruction. (Count)
system.cpu0.commitStats0.committedInstType::SimdAesMix            0      0.00%     90.99% # Class of committed instruction. (Count)
system.cpu0.commitStats0.committedInstType::SimdSha1Hash            0      0.00%     90.99% # Class of committed instruction. (Count)
system.cpu0.commitStats0.committedInstType::SimdSha1Hash2            0      0.00%     90.99% # Class of committed instruction. (Count)
system.cpu0.commitStats0.committedInstType::SimdSha256Hash            0      0.00%     90.99% # Class of committed instruction. (Count)
system.cpu0.commitStats0.committedInstType::SimdSha256Hash2            0      0.00%     90.99% # Class of committed instruction. (Count)
system.cpu0.commitStats0.committedInstType::SimdShaSigma2            0      0.00%     90.99% # Class of committed instruction. (Count)
system.cpu0.commitStats0.committedInstType::SimdShaSigma3            0      0.00%     90.99% # Class of committed instruction. (Count)
system.cpu0.commitStats0.committedInstType::SimdPredAlu            0      0.00%     90.99% # Class of committed instruction. (Count)
system.cpu0.commitStats0.committedInstType::Matrix            0      0.00%     90.99% # Class of committed instruction. (Count)
system.cpu0.commitStats0.committedInstType::MatrixMov            0      0.00%     90.99% # Class of committed instruction. (Count)
system.cpu0.commitStats0.committedInstType::MatrixOP            0      0.00%     90.99% # Class of committed instruction. (Count)
system.cpu0.commitStats0.committedInstType::MemRead        11841      4.35%     95.34% # Class of committed instruction. (Count)
system.cpu0.commitStats0.committedInstType::MemWrite        12027      4.42%     99.76% # Class of committed instruction. (Count)
system.cpu0.commitStats0.committedInstType::FloatMemRead          121      0.04%     99.81% # Class of committed instruction. (Count)
system.cpu0.commitStats0.committedInstType::FloatMemWrite          523      0.19%    100.00% # Class of committed instruction. (Count)
system.cpu0.commitStats0.committedInstType::IprAccess            0      0.00%    100.00% # Class of committed instruction. (Count)
system.cpu0.commitStats0.committedInstType::InstPrefetch            0      0.00%    100.00% # Class of committed instruction. (Count)
system.cpu0.commitStats0.committedInstType::SimdUnitStrideLoad            0      0.00%    100.00% # Class of committed instruction. (Count)
system.cpu0.commitStats0.committedInstType::SimdUnitStrideStore            0      0.00%    100.00% # Class of committed instruction. (Count)
system.cpu0.commitStats0.committedInstType::SimdUnitStrideMaskLoad            0      0.00%    100.00% # Class of committed instruction. (Count)
system.cpu0.commitStats0.committedInstType::SimdUnitStrideMaskStore            0      0.00%    100.00% # Class of committed instruction. (Count)
system.cpu0.commitStats0.committedInstType::SimdStridedLoad            0      0.00%    100.00% # Class of committed instruction. (Count)
system.cpu0.commitStats0.committedInstType::SimdStridedStore            0      0.00%    100.00% # Class of committed instruction. (Count)
system.cpu0.commitStats0.committedInstType::SimdIndexedLoad            0      0.00%    100.00% # Class of committed instruction. (Count)
system.cpu0.commitStats0.committedInstType::SimdIndexedStore            0      0.00%    100.00% # Class of committed instruction. (Count)
system.cpu0.commitStats0.committedInstType::SimdWholeRegisterLoad            0      0.00%    100.00% # Class of committed instruction. (Count)
system.cpu0.commitStats0.committedInstType::SimdWholeRegisterStore            0      0.00%    100.00% # Class of committed instruction. (Count)
system.cpu0.commitStats0.committedInstType::SimdUnitStrideFaultOnlyFirstLoad            0      0.00%    100.00% # Class of committed instruction. (Count)
system.cpu0.commitStats0.committedInstType::SimdUnitStrideSegmentedLoad            0      0.00%    100.00% # Class of committed instruction. (Count)
system.cpu0.commitStats0.committedInstType::SimdUnitStrideSegmentedStore            0      0.00%    100.00% # Class of committed instruction. (Count)
system.cpu0.commitStats0.committedInstType::SimdUnitStrideSegmentedFaultOnlyFirstLoad            0      0.00%    100.00% # Class of committed instruction. (Count)
system.cpu0.commitStats0.committedInstType::SimdStrideSegmentedLoad            0      0.00%    100.00% # Class of committed instruction. (Count)
system.cpu0.commitStats0.committedInstType::SimdStrideSegmentedStore            0      0.00%    100.00% # Class of committed instruction. (Count)
system.cpu0.commitStats0.committedInstType::SimdExt            0      0.00%    100.00% # Class of committed instruction. (Count)
system.cpu0.commitStats0.committedInstType::SimdFloatExt            0      0.00%    100.00% # Class of committed instruction. (Count)
system.cpu0.commitStats0.committedInstType::SimdConfig            0      0.00%    100.00% # Class of committed instruction. (Count)
system.cpu0.commitStats0.committedInstType::total       271971                       # Class of committed instruction. (Count)
system.cpu0.commitStats0.committedControl::IsControl        52177                       # Class of control type instructions committed (Count)
system.cpu0.commitStats0.committedControl::IsDirectControl        51929                       # Class of control type instructions committed (Count)
system.cpu0.commitStats0.committedControl::IsIndirectControl          248                       # Class of control type instructions committed (Count)
system.cpu0.commitStats0.committedControl::IsCondControl        41640                       # Class of control type instructions committed (Count)
system.cpu0.commitStats0.committedControl::IsUncondControl        10537                       # Class of control type instructions committed (Count)
system.cpu0.commitStats0.committedControl::IsCall          180                       # Class of control type instructions committed (Count)
system.cpu0.commitStats0.committedControl::IsReturn          175                       # Class of control type instructions committed (Count)
system.cpu0.exec_context.thread_0.numMatAluAccesses            0                       # Number of matrix alu accesses (Count)
system.cpu0.exec_context.thread_0.numCallsReturns          355                       # Number of times a function call or return occured (Count)
system.cpu0.exec_context.thread_0.numMatInsts            0                       # Number of matrix instructions (Count)
system.cpu0.exec_context.thread_0.numIdleCycles     0.002000                       # Number of idle cycles (Cycle)
system.cpu0.exec_context.thread_0.numBusyCycles 4962610.998000                       # Number of busy cycles (Cycle)
system.cpu0.exec_context.thread_0.notIdleFraction     1.000000                       # Percentage of non-idle cycles (Ratio)
system.cpu0.exec_context.thread_0.idleFraction     0.000000                       # Percentage of idle cycles (Ratio)
system.cpu0.executeStats0.numInsts                  0                       # Number of executed instructions (Count)
system.cpu0.executeStats0.numNop                    0                       # Number of nop insts executed (Count)
system.cpu0.executeStats0.numBranches               0                       # Number of branches executed (Count)
system.cpu0.executeStats0.numLoadInsts              0                       # Number of load instructions executed (Count)
system.cpu0.executeStats0.numStoreInsts         24512                       # Number of stores executed (Count)
system.cpu0.executeStats0.instRate                  0                       # Inst execution rate ((Count/Cycle))
system.cpu0.executeStats0.numFpAluAccesses         1354                       # Number of float alu accesses (Count)
system.cpu0.executeStats0.numFpRegReads          1462                       # Number of times the floating registers were read (Count)
system.cpu0.executeStats0.numFpRegWrites          785                       # Number of times the floating registers were written (Count)
system.cpu0.executeStats0.numIntAluAccesses       271110                       # Number of integer alu accesses (Count)
system.cpu0.executeStats0.numIntRegReads       283711                       # Number of times the integer registers were read (Count)
system.cpu0.executeStats0.numIntRegWrites       164774                       # Number of times the integer registers were written (Count)
system.cpu0.executeStats0.numMemRefs            24512                       # Number of memory refs (Count)
system.cpu0.executeStats0.numMiscRegReads       129081                       # Number of times the Misc registers were read (Count)
system.cpu0.executeStats0.numVecAluAccesses            0                       # Number of vector alu accesses (Count)
system.cpu0.executeStats0.numDiscardedOps            0                       # Number of ops (including micro ops) which were discarded before commit (Count)
system.cpu0.fetchStats0.numInsts               141593                       # Number of instructions fetched (thread level) (Count)
system.cpu0.fetchStats0.numOps                 271971                       # Number of ops (including micro ops) fetched (thread level) (Count)
system.cpu0.fetchStats0.fetchRate            0.028532                       # Number of inst fetches per cycle ((Count/Cycle))
system.cpu0.fetchStats0.numBranches             52177                       # Number of branches fetched (Count)
system.cpu0.fetchStats0.branchRate           0.010514                       # Number of branch fetches per cycle (Ratio)
system.cpu0.fetchStats0.numFetchSuspends            0                       # Number of times Execute suspended instruction fetching (Count)
system.cpu0.interrupts.clk_domain.clock          8000                       # Clock period in ticks (Tick)
system.cpu0.mmu.dtb.rdAccesses                  11966                       # TLB accesses on read requests (Count)
system.cpu0.mmu.dtb.wrAccesses                  12550                       # TLB accesses on write requests (Count)
system.cpu0.mmu.dtb.rdMisses                       15                       # TLB misses on read requests (Count)
system.cpu0.mmu.dtb.wrMisses                       11                       # TLB misses on write requests (Count)
system.cpu0.mmu.dtb.walker.power_state.pwrStateResidencyTicks::UNDEFINED   2481305500                       # Cumulative time (in ticks) in various power states (Tick)
system.cpu0.mmu.itb.rdAccesses                      0                       # TLB accesses on read requests (Count)
system.cpu0.mmu.itb.wrAccesses                 206007                       # TLB accesses on write requests (Count)
system.cpu0.mmu.itb.rdMisses                        0                       # TLB misses on read requests (Count)
system.cpu0.mmu.itb.wrMisses                       46                       # TLB misses on write requests (Count)
system.cpu0.mmu.itb.walker.power_state.pwrStateResidencyTicks::UNDEFINED   2481305500                       # Cumulative time (in ticks) in various power states (Tick)
system.cpu0.power_state.pwrStateResidencyTicks::ON   2481305500                       # Cumulative time (in ticks) in various power states (Tick)
system.cpu0.thread_0.numInsts                       0                       # Number of Instructions committed (Count)
system.cpu0.thread_0.numOps                         0                       # Number of Ops committed (Count)
system.cpu0.thread_0.numMemRefs                     0                       # Number of Memory References (Count)
system.cpu0.workload.numSyscalls                   15                       # Number of system calls (Count)
system.cpu1.numCycles                         4962362                       # Number of cpu cycles simulated (Cycle)
system.cpu1.cpi                             24.304216                       # CPI: cycles per instruction (core level) ((Cycle/Count))
system.cpu1.ipc                              0.041145                       # IPC: instructions per cycle (core level) ((Count/Cycle))
system.cpu1.numWorkItemsStarted                     0                       # Number of work items this cpu started (Count)
system.cpu1.numWorkItemsCompleted                   0                       # Number of work items this cpu completed (Count)
system.cpu1.commitStats0.numInsts              204177                       # Number of instructions committed (thread level) (Count)
system.cpu1.commitStats0.numOps                418927                       # Number of ops (including micro ops) committed (thread level) (Count)
system.cpu1.commitStats0.numInstsNotNOP             0                       # Number of instructions committed excluding NOPs or prefetches (Count)
system.cpu1.commitStats0.numOpsNotNOP               0                       # Number of Ops (including micro ops) Simulated (Count)
system.cpu1.commitStats0.cpi                24.304216                       # CPI: cycles per instruction (thread level) ((Cycle/Count))
system.cpu1.commitStats0.ipc                 0.041145                       # IPC: instructions per cycle (thread level) ((Count/Cycle))
system.cpu1.commitStats0.numMemRefs                 0                       # Number of memory references committed (Count)
system.cpu1.commitStats0.numFpInsts              1354                       # Number of float instructions (Count)
system.cpu1.commitStats0.numIntInsts           418066                       # Number of integer instructions (Count)
system.cpu1.commitStats0.numLoadInsts           52244                       # Number of load instructions (Count)
system.cpu1.commitStats0.numStoreInsts          11893                       # Number of store instructions (Count)
system.cpu1.commitStats0.numVecInsts                0                       # Number of vector instructions (Count)
system.cpu1.commitStats0.committedInstType::No_OpClass          210      0.05%      0.05% # Class of committed instruction. (Count)
system.cpu1.commitStats0.committedInstType::IntAlu       353993     84.50%     84.55% # Class of committed instruction. (Count)
system.cpu1.commitStats0.committedInstType::IntMult           13      0.00%     84.55% # Class of committed instruction. (Count)
system.cpu1.commitStats0.committedInstType::IntDiv           21      0.01%     84.56% # Class of committed instruction. (Count)
system.cpu1.commitStats0.committedInstType::FloatAdd          172      0.04%     84.60% # Class of committed instruction. (Count)
system.cpu1.commitStats0.committedInstType::FloatCmp            0      0.00%     84.60% # Class of committed instruction. (Count)
system.cpu1.commitStats0.committedInstType::FloatCvt            0      0.00%     84.60% # Class of committed instruction. (Count)
system.cpu1.commitStats0.committedInstType::FloatMult            0      0.00%     84.60% # Class of committed instruction. (Count)
system.cpu1.commitStats0.committedInstType::FloatMultAcc            0      0.00%     84.60% # Class of committed instruction. (Count)
system.cpu1.commitStats0.committedInstType::FloatDiv            0      0.00%     84.60% # Class of committed instruction. (Count)
system.cpu1.commitStats0.committedInstType::FloatMisc            0      0.00%     84.60% # Class of committed instruction. (Count)
system.cpu1.commitStats0.committedInstType::FloatSqrt            0      0.00%     84.60% # Class of committed instruction. (Count)
system.cpu1.commitStats0.committedInstType::SimdAdd            8      0.00%     84.60% # Class of committed instruction. (Count)
system.cpu1.commitStats0.committedInstType::SimdAddAcc            0      0.00%     84.60% # Class of committed instruction. (Count)
system.cpu1.commitStats0.committedInstType::SimdAlu           96      0.02%     84.62% # Class of committed instruction. (Count)
system.cpu1.commitStats0.committedInstType::SimdCmp            0      0.00%     84.62% # Class of committed instruction. (Count)
system.cpu1.commitStats0.committedInstType::SimdCvt           48      0.01%     84.64% # Class of committed instruction. (Count)
system.cpu1.commitStats0.committedInstType::SimdMisc          229      0.05%     84.69% # Class of committed instruction. (Count)
system.cpu1.commitStats0.committedInstType::SimdMult            0      0.00%     84.69% # Class of committed instruction. (Count)
system.cpu1.commitStats0.committedInstType::SimdMultAcc            0      0.00%     84.69% # Class of committed instruction. (Count)
system.cpu1.commitStats0.committedInstType::SimdMatMultAcc            0      0.00%     84.69% # Class of committed instruction. (Count)
system.cpu1.commitStats0.committedInstType::SimdShift            0      0.00%     84.69% # Class of committed instruction. (Count)
system.cpu1.commitStats0.committedInstType::SimdShiftAcc            0      0.00%     84.69% # Class of committed instruction. (Count)
system.cpu1.commitStats0.committedInstType::SimdDiv            0      0.00%     84.69% # Class of committed instruction. (Count)
system.cpu1.commitStats0.committedInstType::SimdSqrt            0      0.00%     84.69% # Class of committed instruction. (Count)
system.cpu1.commitStats0.committedInstType::SimdFloatAdd            0      0.00%     84.69% # Class of committed instruction. (Count)
system.cpu1.commitStats0.committedInstType::SimdFloatAlu            0      0.00%     84.69% # Class of committed instruction. (Count)
system.cpu1.commitStats0.committedInstType::SimdFloatCmp            0      0.00%     84.69% # Class of committed instruction. (Count)
system.cpu1.commitStats0.committedInstType::SimdFloatCvt            0      0.00%     84.69% # Class of committed instruction. (Count)
system.cpu1.commitStats0.committedInstType::SimdFloatDiv            0      0.00%     84.69% # Class of committed instruction. (Count)
system.cpu1.commitStats0.committedInstType::SimdFloatMisc            0      0.00%     84.69% # Class of committed instruction. (Count)
system.cpu1.commitStats0.committedInstType::SimdFloatMult            0      0.00%     84.69% # Class of committed instruction. (Count)
system.cpu1.commitStats0.committedInstType::SimdFloatMultAcc            0      0.00%     84.69% # Class of committed instruction. (Count)
system.cpu1.commitStats0.committedInstType::SimdFloatMatMultAcc            0      0.00%     84.69% # Class of committed instruction. (Count)
system.cpu1.commitStats0.committedInstType::SimdFloatSqrt            0      0.00%     84.69% # Class of committed instruction. (Count)
system.cpu1.commitStats0.committedInstType::SimdReduceAdd            0      0.00%     84.69% # Class of committed instruction. (Count)
system.cpu1.commitStats0.committedInstType::SimdReduceAlu            0      0.00%     84.69% # Class of committed instruction. (Count)
system.cpu1.commitStats0.committedInstType::SimdReduceCmp            0      0.00%     84.69% # Class of committed instruction. (Count)
system.cpu1.commitStats0.committedInstType::SimdFloatReduceAdd            0      0.00%     84.69% # Class of committed instruction. (Count)
system.cpu1.commitStats0.committedInstType::SimdFloatReduceCmp            0      0.00%     84.69% # Class of committed instruction. (Count)
system.cpu1.commitStats0.committedInstType::SimdAes            0      0.00%     84.69% # Class of committed instruction. (Count)
system.cpu1.commitStats0.committedInstType::SimdAesMix            0      0.00%     84.69% # Class of committed instruction. (Count)
system.cpu1.commitStats0.committedInstType::SimdSha1Hash            0      0.00%     84.69% # Class of committed instruction. (Count)
system.cpu1.commitStats0.committedInstType::SimdSha1Hash2            0      0.00%     84.69% # Class of committed instruction. (Count)
system.cpu1.commitStats0.committedInstType::SimdSha256Hash            0      0.00%     84.69% # Class of committed instruction. (Count)
system.cpu1.commitStats0.committedInstType::SimdSha256Hash2            0      0.00%     84.69% # Class of committed instruction. (Count)
system.cpu1.commitStats0.committedInstType::SimdShaSigma2            0      0.00%     84.69% # Class of committed instruction. (Count)
system.cpu1.commitStats0.committedInstType::SimdShaSigma3            0      0.00%     84.69% # Class of committed instruction. (Count)
system.cpu1.commitStats0.committedInstType::SimdPredAlu            0      0.00%     84.69% # Class of committed instruction. (Count)
system.cpu1.commitStats0.committedInstType::Matrix            0      0.00%     84.69% # Class of committed instruction. (Count)
system.cpu1.commitStats0.committedInstType::MatrixMov            0      0.00%     84.69% # Class of committed instruction. (Count)
system.cpu1.commitStats0.committedInstType::MatrixOP            0      0.00%     84.69% # Class of committed instruction. (Count)
system.cpu1.commitStats0.committedInstType::MemRead        52123     12.44%     97.13% # Class of committed instruction. (Count)
system.cpu1.commitStats0.committedInstType::MemWrite        11370      2.71%     99.85% # Class of committed instruction. (Count)
system.cpu1.commitStats0.committedInstType::FloatMemRead          121      0.03%     99.88% # Class of committed instruction. (Count)
system.cpu1.commitStats0.committedInstType::FloatMemWrite          523      0.12%    100.00% # Class of committed instruction. (Count)
system.cpu1.commitStats0.committedInstType::IprAccess            0      0.00%    100.00% # Class of committed instruction. (Count)
system.cpu1.commitStats0.committedInstType::InstPrefetch            0      0.00%    100.00% # Class of committed instruction. (Count)
system.cpu1.commitStats0.committedInstType::SimdUnitStrideLoad            0      0.00%    100.00% # Class of committed instruction. (Count)
system.cpu1.commitStats0.committedInstType::SimdUnitStrideStore            0      0.00%    100.00% # Class of committed instruction. (Count)
system.cpu1.commitStats0.committedInstType::SimdUnitStrideMaskLoad            0      0.00%    100.00% # Class of committed instruction. (Count)
system.cpu1.commitStats0.committedInstType::SimdUnitStrideMaskStore            0      0.00%    100.00% # Class of committed instruction. (Count)
system.cpu1.commitStats0.committedInstType::SimdStridedLoad            0      0.00%    100.00% # Class of committed instruction. (Count)
system.cpu1.commitStats0.committedInstType::SimdStridedStore            0      0.00%    100.00% # Class of committed instruction. (Count)
system.cpu1.commitStats0.committedInstType::SimdIndexedLoad            0      0.00%    100.00% # Class of committed instruction. (Count)
system.cpu1.commitStats0.committedInstType::SimdIndexedStore            0      0.00%    100.00% # Class of committed instruction. (Count)
system.cpu1.commitStats0.committedInstType::SimdWholeRegisterLoad            0      0.00%    100.00% # Class of committed instruction. (Count)
system.cpu1.commitStats0.committedInstType::SimdWholeRegisterStore            0      0.00%    100.00% # Class of committed instruction. (Count)
system.cpu1.commitStats0.committedInstType::SimdUnitStrideFaultOnlyFirstLoad            0      0.00%    100.00% # Class of committed instruction. (Count)
system.cpu1.commitStats0.committedInstType::SimdUnitStrideSegmentedLoad            0      0.00%    100.00% # Class of committed instruction. (Count)
system.cpu1.commitStats0.committedInstType::SimdUnitStrideSegmentedStore            0      0.00%    100.00% # Class of committed instruction. (Count)
system.cpu1.commitStats0.committedInstType::SimdUnitStrideSegmentedFaultOnlyFirstLoad            0      0.00%    100.00% # Class of committed instruction. (Count)
system.cpu1.commitStats0.committedInstType::SimdStrideSegmentedLoad            0      0.00%    100.00% # Class of committed instruction. (Count)
system.cpu1.commitStats0.committedInstType::SimdStrideSegmentedStore            0      0.00%    100.00% # Class of committed instruction. (Count)
system.cpu1.commitStats0.committedInstType::SimdExt            0      0.00%    100.00% # Class of committed instruction. (Count)
system.cpu1.commitStats0.committedInstType::SimdFloatExt            0      0.00%    100.00% # Class of committed instruction. (Count)
system.cpu1.commitStats0.committedInstType::SimdConfig            0      0.00%    100.00% # Class of committed instruction. (Count)
system.cpu1.commitStats0.committedInstType::total       418927                       # Class of committed instruction. (Count)
system.cpu1.commitStats0.committedControl::IsControl        73451                       # Class of control type instructions committed (Count)
system.cpu1.commitStats0.committedControl::IsDirectControl        73203                       # Class of control type instructions committed (Count)
system.cpu1.commitStats0.committedControl::IsIndirectControl          248                       # Class of control type instructions committed (Count)
system.cpu1.commitStats0.committedControl::IsCondControl        62915                       # Class of control type instructions committed (Count)
system.cpu1.commitStats0.committedControl::IsUncondControl        10536                       # Class of control type instructions committed (Count)
system.cpu1.commitStats0.committedControl::IsCall          180                       # Class of control type instructions committed (Count)
system.cpu1.commitStats0.committedControl::IsReturn          175                       # Class of control type instructions committed (Count)
system.cpu1.exec_context.thread_0.numMatAluAccesses            0                       # Number of matrix alu accesses (Count)
system.cpu1.exec_context.thread_0.numCallsReturns          355                       # Number of times a function call or return occured (Count)
system.cpu1.exec_context.thread_0.numMatInsts            0                       # Number of matrix instructions (Count)
system.cpu1.exec_context.thread_0.numIdleCycles   248.989506                       # Number of idle cycles (Cycle)
system.cpu1.exec_context.thread_0.numBusyCycles 4962113.010494                       # Number of busy cycles (Cycle)
system.cpu1.exec_context.thread_0.notIdleFraction     0.999950                       # Percentage of non-idle cycles (Ratio)
system.cpu1.exec_context.thread_0.idleFraction     0.000050                       # Percentage of idle cycles (Ratio)
system.cpu1.executeStats0.numInsts                  0                       # Number of executed instructions (Count)
system.cpu1.executeStats0.numNop                    0                       # Number of nop insts executed (Count)
system.cpu1.executeStats0.numBranches               0                       # Number of branches executed (Count)
system.cpu1.executeStats0.numLoadInsts              0                       # Number of load instructions executed (Count)
system.cpu1.executeStats0.numStoreInsts         64137                       # Number of stores executed (Count)
system.cpu1.executeStats0.instRate                  0                       # Inst execution rate ((Count/Cycle))
system.cpu1.executeStats0.numFpAluAccesses         1354                       # Number of float alu accesses (Count)
system.cpu1.executeStats0.numFpRegReads          1462                       # Number of times the floating registers were read (Count)
system.cpu1.executeStats0.numFpRegWrites          785                       # Number of times the floating registers were written (Count)
system.cpu1.executeStats0.numIntAluAccesses       418066                       # Number of integer alu accesses (Count)
system.cpu1.executeStats0.numIntRegReads       406495                       # Number of times the integer registers were read (Count)
system.cpu1.executeStats0.numIntRegWrites       269839                       # Number of times the integer registers were written (Count)
system.cpu1.executeStats0.numMemRefs            64137                       # Number of memory refs (Count)
system.cpu1.executeStats0.numMiscRegReads       211254                       # Number of times the Misc registers were read (Count)
system.cpu1.executeStats0.numVecAluAccesses            0                       # Number of vector alu accesses (Count)
system.cpu1.executeStats0.numDiscardedOps            0                       # Number of ops (including micro ops) which were discarded before commit (Count)
system.cpu1.fetchStats0.numInsts               204177                       # Number of instructions fetched (thread level) (Count)
system.cpu1.fetchStats0.numOps                 418927                       # Number of ops (including micro ops) fetched (thread level) (Count)
system.cpu1.fetchStats0.fetchRate            0.041145                       # Number of inst fetches per cycle ((Count/Cycle))
system.cpu1.fetchStats0.numBranches             73451                       # Number of branches fetched (Count)
system.cpu1.fetchStats0.branchRate           0.014802                       # Number of branch fetches per cycle (Ratio)
system.cpu1.fetchStats0.numFetchSuspends            0                       # Number of times Execute suspended instruction fetching (Count)
system.cpu1.interrupts.clk_domain.clock          8000                       # Clock period in ticks (Tick)
system.cpu1.mmu.dtb.rdAccesses                  52248                       # TLB accesses on read requests (Count)
system.cpu1.mmu.dtb.wrAccesses                  11893                       # TLB accesses on write requests (Count)
system.cpu1.mmu.dtb.rdMisses                       17                       # TLB misses on read requests (Count)
system.cpu1.mmu.dtb.wrMisses                        9                       # TLB misses on write requests (Count)
system.cpu1.mmu.dtb.walker.power_state.pwrStateResidencyTicks::UNDEFINED   2481305500                       # Cumulative time (in ticks) in various power states (Tick)
system.cpu1.mmu.itb.rdAccesses                      0                       # TLB accesses on read requests (Count)
system.cpu1.mmu.itb.wrAccesses                 288886                       # TLB accesses on write requests (Count)
system.cpu1.mmu.itb.rdMisses                        0                       # TLB misses on read requests (Count)
system.cpu1.mmu.itb.wrMisses                       46                       # TLB misses on write requests (Count)
system.cpu1.mmu.itb.walker.power_state.pwrStateResidencyTicks::UNDEFINED   2481305500                       # Cumulative time (in ticks) in various power states (Tick)
system.cpu1.power_state.pwrStateResidencyTicks::ON   2481305500                       # Cumulative time (in ticks) in various power states (Tick)
system.cpu1.thread_0.numInsts                       0                       # Number of Instructions committed (Count)
system.cpu1.thread_0.numOps                         0                       # Number of Ops committed (Count)
system.cpu1.thread_0.numMemRefs                     0                       # Number of Memory References (Count)
system.cpu1.workload.numSyscalls                   15                       # Number of system calls (Count)
system.cpu10.numCycles                        4962342                       # Number of cpu cycles simulated (Cycle)
system.cpu10.cpi                            24.457806                       # CPI: cycles per instruction (core level) ((Cycle/Count))
system.cpu10.ipc                             0.040887                       # IPC: instructions per cycle (core level) ((Count/Cycle))
system.cpu10.numWorkItemsStarted                    0                       # Number of work items this cpu started (Count)
system.cpu10.numWorkItemsCompleted                  0                       # Number of work items this cpu completed (Count)
system.cpu10.commitStats0.numInsts             202894                       # Number of instructions committed (thread level) (Count)
system.cpu10.commitStats0.numOps               415924                       # Number of ops (including micro ops) committed (thread level) (Count)
system.cpu10.commitStats0.numInstsNotNOP            0                       # Number of instructions committed excluding NOPs or prefetches (Count)
system.cpu10.commitStats0.numOpsNotNOP              0                       # Number of Ops (including micro ops) Simulated (Count)
system.cpu10.commitStats0.cpi               24.457806                       # CPI: cycles per instruction (thread level) ((Cycle/Count))
system.cpu10.commitStats0.ipc                0.040887                       # IPC: instructions per cycle (thread level) ((Count/Cycle))
system.cpu10.commitStats0.numMemRefs                0                       # Number of memory references committed (Count)
system.cpu10.commitStats0.numFpInsts             1354                       # Number of float instructions (Count)
system.cpu10.commitStats0.numIntInsts          415064                       # Number of integer instructions (Count)
system.cpu10.commitStats0.numLoadInsts          51833                       # Number of load instructions (Count)
system.cpu10.commitStats0.numStoreInsts         11895                       # Number of store instructions (Count)
system.cpu10.commitStats0.numVecInsts               0                       # Number of vector instructions (Count)
system.cpu10.commitStats0.committedInstType::No_OpClass          209      0.05%      0.05% # Class of committed instruction. (Count)
system.cpu10.commitStats0.committedInstType::IntAlu       351399     84.49%     84.54% # Class of committed instruction. (Count)
system.cpu10.commitStats0.committedInstType::IntMult           14      0.00%     84.54% # Class of committed instruction. (Count)
system.cpu10.commitStats0.committedInstType::IntDiv           21      0.01%     84.55% # Class of committed instruction. (Count)
system.cpu10.commitStats0.committedInstType::FloatAdd          172      0.04%     84.59% # Class of committed instruction. (Count)
system.cpu10.commitStats0.committedInstType::FloatCmp            0      0.00%     84.59% # Class of committed instruction. (Count)
system.cpu10.commitStats0.committedInstType::FloatCvt            0      0.00%     84.59% # Class of committed instruction. (Count)
system.cpu10.commitStats0.committedInstType::FloatMult            0      0.00%     84.59% # Class of committed instruction. (Count)
system.cpu10.commitStats0.committedInstType::FloatMultAcc            0      0.00%     84.59% # Class of committed instruction. (Count)
system.cpu10.commitStats0.committedInstType::FloatDiv            0      0.00%     84.59% # Class of committed instruction. (Count)
system.cpu10.commitStats0.committedInstType::FloatMisc            0      0.00%     84.59% # Class of committed instruction. (Count)
system.cpu10.commitStats0.committedInstType::FloatSqrt            0      0.00%     84.59% # Class of committed instruction. (Count)
system.cpu10.commitStats0.committedInstType::SimdAdd            8      0.00%     84.59% # Class of committed instruction. (Count)
system.cpu10.commitStats0.committedInstType::SimdAddAcc            0      0.00%     84.59% # Class of committed instruction. (Count)
system.cpu10.commitStats0.committedInstType::SimdAlu           96      0.02%     84.61% # Class of committed instruction. (Count)
system.cpu10.commitStats0.committedInstType::SimdCmp            0      0.00%     84.61% # Class of committed instruction. (Count)
system.cpu10.commitStats0.committedInstType::SimdCvt           48      0.01%     84.62% # Class of committed instruction. (Count)
system.cpu10.commitStats0.committedInstType::SimdMisc          229      0.06%     84.68% # Class of committed instruction. (Count)
system.cpu10.commitStats0.committedInstType::SimdMult            0      0.00%     84.68% # Class of committed instruction. (Count)
system.cpu10.commitStats0.committedInstType::SimdMultAcc            0      0.00%     84.68% # Class of committed instruction. (Count)
system.cpu10.commitStats0.committedInstType::SimdMatMultAcc            0      0.00%     84.68% # Class of committed instruction. (Count)
system.cpu10.commitStats0.committedInstType::SimdShift            0      0.00%     84.68% # Class of committed instruction. (Count)
system.cpu10.commitStats0.committedInstType::SimdShiftAcc            0      0.00%     84.68% # Class of committed instruction. (Count)
system.cpu10.commitStats0.committedInstType::SimdDiv            0      0.00%     84.68% # Class of committed instruction. (Count)
system.cpu10.commitStats0.committedInstType::SimdSqrt            0      0.00%     84.68% # Class of committed instruction. (Count)
system.cpu10.commitStats0.committedInstType::SimdFloatAdd            0      0.00%     84.68% # Class of committed instruction. (Count)
system.cpu10.commitStats0.committedInstType::SimdFloatAlu            0      0.00%     84.68% # Class of committed instruction. (Count)
system.cpu10.commitStats0.committedInstType::SimdFloatCmp            0      0.00%     84.68% # Class of committed instruction. (Count)
system.cpu10.commitStats0.committedInstType::SimdFloatCvt            0      0.00%     84.68% # Class of committed instruction. (Count)
system.cpu10.commitStats0.committedInstType::SimdFloatDiv            0      0.00%     84.68% # Class of committed instruction. (Count)
system.cpu10.commitStats0.committedInstType::SimdFloatMisc            0      0.00%     84.68% # Class of committed instruction. (Count)
system.cpu10.commitStats0.committedInstType::SimdFloatMult            0      0.00%     84.68% # Class of committed instruction. (Count)
system.cpu10.commitStats0.committedInstType::SimdFloatMultAcc            0      0.00%     84.68% # Class of committed instruction. (Count)
system.cpu10.commitStats0.committedInstType::SimdFloatMatMultAcc            0      0.00%     84.68% # Class of committed instruction. (Count)
system.cpu10.commitStats0.committedInstType::SimdFloatSqrt            0      0.00%     84.68% # Class of committed instruction. (Count)
system.cpu10.commitStats0.committedInstType::SimdReduceAdd            0      0.00%     84.68% # Class of committed instruction. (Count)
system.cpu10.commitStats0.committedInstType::SimdReduceAlu            0      0.00%     84.68% # Class of committed instruction. (Count)
system.cpu10.commitStats0.committedInstType::SimdReduceCmp            0      0.00%     84.68% # Class of committed instruction. (Count)
system.cpu10.commitStats0.committedInstType::SimdFloatReduceAdd            0      0.00%     84.68% # Class of committed instruction. (Count)
system.cpu10.commitStats0.committedInstType::SimdFloatReduceCmp            0      0.00%     84.68% # Class of committed instruction. (Count)
system.cpu10.commitStats0.committedInstType::SimdAes            0      0.00%     84.68% # Class of committed instruction. (Count)
system.cpu10.commitStats0.committedInstType::SimdAesMix            0      0.00%     84.68% # Class of committed instruction. (Count)
system.cpu10.commitStats0.committedInstType::SimdSha1Hash            0      0.00%     84.68% # Class of committed instruction. (Count)
system.cpu10.commitStats0.committedInstType::SimdSha1Hash2            0      0.00%     84.68% # Class of committed instruction. (Count)
system.cpu10.commitStats0.committedInstType::SimdSha256Hash            0      0.00%     84.68% # Class of committed instruction. (Count)
system.cpu10.commitStats0.committedInstType::SimdSha256Hash2            0      0.00%     84.68% # Class of committed instruction. (Count)
system.cpu10.commitStats0.committedInstType::SimdShaSigma2            0      0.00%     84.68% # Class of committed instruction. (Count)
system.cpu10.commitStats0.committedInstType::SimdShaSigma3            0      0.00%     84.68% # Class of committed instruction. (Count)
system.cpu10.commitStats0.committedInstType::SimdPredAlu            0      0.00%     84.68% # Class of committed instruction. (Count)
system.cpu10.commitStats0.committedInstType::Matrix            0      0.00%     84.68% # Class of committed instruction. (Count)
system.cpu10.commitStats0.committedInstType::MatrixMov            0      0.00%     84.68% # Class of committed instruction. (Count)
system.cpu10.commitStats0.committedInstType::MatrixOP            0      0.00%     84.68% # Class of committed instruction. (Count)
system.cpu10.commitStats0.committedInstType::MemRead        51712     12.43%     97.11% # Class of committed instruction. (Count)
system.cpu10.commitStats0.committedInstType::MemWrite        11372      2.73%     99.85% # Class of committed instruction. (Count)
system.cpu10.commitStats0.committedInstType::FloatMemRead          121      0.03%     99.87% # Class of committed instruction. (Count)
system.cpu10.commitStats0.committedInstType::FloatMemWrite          523      0.13%    100.00% # Class of committed instruction. (Count)
system.cpu10.commitStats0.committedInstType::IprAccess            0      0.00%    100.00% # Class of committed instruction. (Count)
system.cpu10.commitStats0.committedInstType::InstPrefetch            0      0.00%    100.00% # Class of committed instruction. (Count)
system.cpu10.commitStats0.committedInstType::SimdUnitStrideLoad            0      0.00%    100.00% # Class of committed instruction. (Count)
system.cpu10.commitStats0.committedInstType::SimdUnitStrideStore            0      0.00%    100.00% # Class of committed instruction. (Count)
system.cpu10.commitStats0.committedInstType::SimdUnitStrideMaskLoad            0      0.00%    100.00% # Class of committed instruction. (Count)
system.cpu10.commitStats0.committedInstType::SimdUnitStrideMaskStore            0      0.00%    100.00% # Class of committed instruction. (Count)
system.cpu10.commitStats0.committedInstType::SimdStridedLoad            0      0.00%    100.00% # Class of committed instruction. (Count)
system.cpu10.commitStats0.committedInstType::SimdStridedStore            0      0.00%    100.00% # Class of committed instruction. (Count)
system.cpu10.commitStats0.committedInstType::SimdIndexedLoad            0      0.00%    100.00% # Class of committed instruction. (Count)
system.cpu10.commitStats0.committedInstType::SimdIndexedStore            0      0.00%    100.00% # Class of committed instruction. (Count)
system.cpu10.commitStats0.committedInstType::SimdWholeRegisterLoad            0      0.00%    100.00% # Class of committed instruction. (Count)
system.cpu10.commitStats0.committedInstType::SimdWholeRegisterStore            0      0.00%    100.00% # Class of committed instruction. (Count)
system.cpu10.commitStats0.committedInstType::SimdUnitStrideFaultOnlyFirstLoad            0      0.00%    100.00% # Class of committed instruction. (Count)
system.cpu10.commitStats0.committedInstType::SimdUnitStrideSegmentedLoad            0      0.00%    100.00% # Class of committed instruction. (Count)
system.cpu10.commitStats0.committedInstType::SimdUnitStrideSegmentedStore            0      0.00%    100.00% # Class of committed instruction. (Count)
system.cpu10.commitStats0.committedInstType::SimdUnitStrideSegmentedFaultOnlyFirstLoad            0      0.00%    100.00% # Class of committed instruction. (Count)
system.cpu10.commitStats0.committedInstType::SimdStrideSegmentedLoad            0      0.00%    100.00% # Class of committed instruction. (Count)
system.cpu10.commitStats0.committedInstType::SimdStrideSegmentedStore            0      0.00%    100.00% # Class of committed instruction. (Count)
system.cpu10.commitStats0.committedInstType::SimdExt            0      0.00%    100.00% # Class of committed instruction. (Count)
system.cpu10.commitStats0.committedInstType::SimdFloatExt            0      0.00%    100.00% # Class of committed instruction. (Count)
system.cpu10.commitStats0.committedInstType::SimdConfig            0      0.00%    100.00% # Class of committed instruction. (Count)
system.cpu10.commitStats0.committedInstType::total       415924                       # Class of committed instruction. (Count)
system.cpu10.commitStats0.committedControl::IsControl        73022                       # Class of control type instructions committed (Count)
system.cpu10.commitStats0.committedControl::IsDirectControl        72774                       # Class of control type instructions committed (Count)
system.cpu10.commitStats0.committedControl::IsIndirectControl          248                       # Class of control type instructions committed (Count)
system.cpu10.commitStats0.committedControl::IsCondControl        62486                       # Class of control type instructions committed (Count)
system.cpu10.commitStats0.committedControl::IsUncondControl        10536                       # Class of control type instructions committed (Count)
system.cpu10.commitStats0.committedControl::IsCall          180                       # Class of control type instructions committed (Count)
system.cpu10.commitStats0.committedControl::IsReturn          175                       # Class of control type instructions committed (Count)
system.cpu10.exec_context.thread_0.numMatAluAccesses            0                       # Number of matrix alu accesses (Count)
system.cpu10.exec_context.thread_0.numCallsReturns          355                       # Number of times a function call or return occured (Count)
system.cpu10.exec_context.thread_0.numMatInsts            0                       # Number of matrix instructions (Count)
system.cpu10.exec_context.thread_0.numIdleCycles   268.987419                       # Number of idle cycles (Cycle)
system.cpu10.exec_context.thread_0.numBusyCycles 4962073.012581                       # Number of busy cycles (Cycle)
system.cpu10.exec_context.thread_0.notIdleFraction     0.999946                       # Percentage of non-idle cycles (Ratio)
system.cpu10.exec_context.thread_0.idleFraction     0.000054                       # Percentage of idle cycles (Ratio)
system.cpu10.executeStats0.numInsts                 0                       # Number of executed instructions (Count)
system.cpu10.executeStats0.numNop                   0                       # Number of nop insts executed (Count)
system.cpu10.executeStats0.numBranches              0                       # Number of branches executed (Count)
system.cpu10.executeStats0.numLoadInsts             0                       # Number of load instructions executed (Count)
system.cpu10.executeStats0.numStoreInsts        63728                       # Number of stores executed (Count)
system.cpu10.executeStats0.instRate                 0                       # Inst execution rate ((Count/Cycle))
system.cpu10.executeStats0.numFpAluAccesses         1354                       # Number of float alu accesses (Count)
system.cpu10.executeStats0.numFpRegReads         1462                       # Number of times the floating registers were read (Count)
system.cpu10.executeStats0.numFpRegWrites          785                       # Number of times the floating registers were written (Count)
system.cpu10.executeStats0.numIntAluAccesses       415064                       # Number of integer alu accesses (Count)
system.cpu10.executeStats0.numIntRegReads       404392                       # Number of times the integer registers were read (Count)
system.cpu10.executeStats0.numIntRegWrites       267694                       # Number of times the integer registers were written (Count)
system.cpu10.executeStats0.numMemRefs           63728                       # Number of memory refs (Count)
system.cpu10.executeStats0.numMiscRegReads       209987                       # Number of times the Misc registers were read (Count)
system.cpu10.executeStats0.numVecAluAccesses            0                       # Number of vector alu accesses (Count)
system.cpu10.executeStats0.numDiscardedOps            0                       # Number of ops (including micro ops) which were discarded before commit (Count)
system.cpu10.fetchStats0.numInsts              202894                       # Number of instructions fetched (thread level) (Count)
system.cpu10.fetchStats0.numOps                415924                       # Number of ops (including micro ops) fetched (thread level) (Count)
system.cpu10.fetchStats0.fetchRate           0.040887                       # Number of inst fetches per cycle ((Count/Cycle))
system.cpu10.fetchStats0.numBranches            73022                       # Number of branches fetched (Count)
system.cpu10.fetchStats0.branchRate          0.014715                       # Number of branch fetches per cycle (Ratio)
system.cpu10.fetchStats0.numFetchSuspends            0                       # Number of times Execute suspended instruction fetching (Count)
system.cpu10.interrupts.clk_domain.clock         8000                       # Clock period in ticks (Tick)
system.cpu10.mmu.dtb.rdAccesses                 51837                       # TLB accesses on read requests (Count)
system.cpu10.mmu.dtb.wrAccesses                 11895                       # TLB accesses on write requests (Count)
system.cpu10.mmu.dtb.rdMisses                      17                       # TLB misses on read requests (Count)
system.cpu10.mmu.dtb.wrMisses                       9                       # TLB misses on write requests (Count)
system.cpu10.mmu.dtb.walker.power_state.pwrStateResidencyTicks::UNDEFINED   2481305500                       # Cumulative time (in ticks) in various power states (Tick)
system.cpu10.mmu.itb.rdAccesses                     0                       # TLB accesses on read requests (Count)
system.cpu10.mmu.itb.wrAccesses                287174                       # TLB accesses on write requests (Count)
system.cpu10.mmu.itb.rdMisses                       0                       # TLB misses on read requests (Count)
system.cpu10.mmu.itb.wrMisses                      46                       # TLB misses on write requests (Count)
system.cpu10.mmu.itb.walker.power_state.pwrStateResidencyTicks::UNDEFINED   2481305500                       # Cumulative time (in ticks) in various power states (Tick)
system.cpu10.power_state.pwrStateResidencyTicks::ON   2481305500                       # Cumulative time (in ticks) in various power states (Tick)
system.cpu10.thread_0.numInsts                      0                       # Number of Instructions committed (Count)
system.cpu10.thread_0.numOps                        0                       # Number of Ops committed (Count)
system.cpu10.thread_0.numMemRefs                    0                       # Number of Memory References (Count)
system.cpu10.workload.numSyscalls                  15                       # Number of system calls (Count)
system.cpu11.numCycles                        4962407                       # Number of cpu cycles simulated (Cycle)
system.cpu11.cpi                            24.331488                       # CPI: cycles per instruction (core level) ((Cycle/Count))
system.cpu11.ipc                             0.041099                       # IPC: instructions per cycle (core level) ((Count/Cycle))
system.cpu11.numWorkItemsStarted                    0                       # Number of work items this cpu started (Count)
system.cpu11.numWorkItemsCompleted                  0                       # Number of work items this cpu completed (Count)
system.cpu11.commitStats0.numInsts             203950                       # Number of instructions committed (thread level) (Count)
system.cpu11.commitStats0.numOps               418390                       # Number of ops (including micro ops) committed (thread level) (Count)
system.cpu11.commitStats0.numInstsNotNOP            0                       # Number of instructions committed excluding NOPs or prefetches (Count)
system.cpu11.commitStats0.numOpsNotNOP              0                       # Number of Ops (including micro ops) Simulated (Count)
system.cpu11.commitStats0.cpi               24.331488                       # CPI: cycles per instruction (thread level) ((Cycle/Count))
system.cpu11.commitStats0.ipc                0.041099                       # IPC: instructions per cycle (thread level) ((Count/Cycle))
system.cpu11.commitStats0.numMemRefs                0                       # Number of memory references committed (Count)
system.cpu11.commitStats0.numFpInsts             1354                       # Number of float instructions (Count)
system.cpu11.commitStats0.numIntInsts          417529                       # Number of integer instructions (Count)
system.cpu11.commitStats0.numLoadInsts          52192                       # Number of load instructions (Count)
system.cpu11.commitStats0.numStoreInsts         11893                       # Number of store instructions (Count)
system.cpu11.commitStats0.numVecInsts               0                       # Number of vector instructions (Count)
system.cpu11.commitStats0.committedInstType::No_OpClass          210      0.05%      0.05% # Class of committed instruction. (Count)
system.cpu11.commitStats0.committedInstType::IntAlu       353507     84.49%     84.54% # Class of committed instruction. (Count)
system.cpu11.commitStats0.committedInstType::IntMult           14      0.00%     84.55% # Class of committed instruction. (Count)
system.cpu11.commitStats0.committedInstType::IntDiv           21      0.01%     84.55% # Class of committed instruction. (Count)
system.cpu11.commitStats0.committedInstType::FloatAdd          172      0.04%     84.59% # Class of committed instruction. (Count)
system.cpu11.commitStats0.committedInstType::FloatCmp            0      0.00%     84.59% # Class of committed instruction. (Count)
system.cpu11.commitStats0.committedInstType::FloatCvt            0      0.00%     84.59% # Class of committed instruction. (Count)
system.cpu11.commitStats0.committedInstType::FloatMult            0      0.00%     84.59% # Class of committed instruction. (Count)
system.cpu11.commitStats0.committedInstType::FloatMultAcc            0      0.00%     84.59% # Class of committed instruction. (Count)
system.cpu11.commitStats0.committedInstType::FloatDiv            0      0.00%     84.59% # Class of committed instruction. (Count)
system.cpu11.commitStats0.committedInstType::FloatMisc            0      0.00%     84.59% # Class of committed instruction. (Count)
system.cpu11.commitStats0.committedInstType::FloatSqrt            0      0.00%     84.59% # Class of committed instruction. (Count)
system.cpu11.commitStats0.committedInstType::SimdAdd            8      0.00%     84.59% # Class of committed instruction. (Count)
system.cpu11.commitStats0.committedInstType::SimdAddAcc            0      0.00%     84.59% # Class of committed instruction. (Count)
system.cpu11.commitStats0.committedInstType::SimdAlu           96      0.02%     84.62% # Class of committed instruction. (Count)
system.cpu11.commitStats0.committedInstType::SimdCmp            0      0.00%     84.62% # Class of committed instruction. (Count)
system.cpu11.commitStats0.committedInstType::SimdCvt           48      0.01%     84.63% # Class of committed instruction. (Count)
system.cpu11.commitStats0.committedInstType::SimdMisc          229      0.05%     84.68% # Class of committed instruction. (Count)
system.cpu11.commitStats0.committedInstType::SimdMult            0      0.00%     84.68% # Class of committed instruction. (Count)
system.cpu11.commitStats0.committedInstType::SimdMultAcc            0      0.00%     84.68% # Class of committed instruction. (Count)
system.cpu11.commitStats0.committedInstType::SimdMatMultAcc            0      0.00%     84.68% # Class of committed instruction. (Count)
system.cpu11.commitStats0.committedInstType::SimdShift            0      0.00%     84.68% # Class of committed instruction. (Count)
system.cpu11.commitStats0.committedInstType::SimdShiftAcc            0      0.00%     84.68% # Class of committed instruction. (Count)
system.cpu11.commitStats0.committedInstType::SimdDiv            0      0.00%     84.68% # Class of committed instruction. (Count)
system.cpu11.commitStats0.committedInstType::SimdSqrt            0      0.00%     84.68% # Class of committed instruction. (Count)
system.cpu11.commitStats0.committedInstType::SimdFloatAdd            0      0.00%     84.68% # Class of committed instruction. (Count)
system.cpu11.commitStats0.committedInstType::SimdFloatAlu            0      0.00%     84.68% # Class of committed instruction. (Count)
system.cpu11.commitStats0.committedInstType::SimdFloatCmp            0      0.00%     84.68% # Class of committed instruction. (Count)
system.cpu11.commitStats0.committedInstType::SimdFloatCvt            0      0.00%     84.68% # Class of committed instruction. (Count)
system.cpu11.commitStats0.committedInstType::SimdFloatDiv            0      0.00%     84.68% # Class of committed instruction. (Count)
system.cpu11.commitStats0.committedInstType::SimdFloatMisc            0      0.00%     84.68% # Class of committed instruction. (Count)
system.cpu11.commitStats0.committedInstType::SimdFloatMult            0      0.00%     84.68% # Class of committed instruction. (Count)
system.cpu11.commitStats0.committedInstType::SimdFloatMultAcc            0      0.00%     84.68% # Class of committed instruction. (Count)
system.cpu11.commitStats0.committedInstType::SimdFloatMatMultAcc            0      0.00%     84.68% # Class of committed instruction. (Count)
system.cpu11.commitStats0.committedInstType::SimdFloatSqrt            0      0.00%     84.68% # Class of committed instruction. (Count)
system.cpu11.commitStats0.committedInstType::SimdReduceAdd            0      0.00%     84.68% # Class of committed instruction. (Count)
system.cpu11.commitStats0.committedInstType::SimdReduceAlu            0      0.00%     84.68% # Class of committed instruction. (Count)
system.cpu11.commitStats0.committedInstType::SimdReduceCmp            0      0.00%     84.68% # Class of committed instruction. (Count)
system.cpu11.commitStats0.committedInstType::SimdFloatReduceAdd            0      0.00%     84.68% # Class of committed instruction. (Count)
system.cpu11.commitStats0.committedInstType::SimdFloatReduceCmp            0      0.00%     84.68% # Class of committed instruction. (Count)
system.cpu11.commitStats0.committedInstType::SimdAes            0      0.00%     84.68% # Class of committed instruction. (Count)
system.cpu11.commitStats0.committedInstType::SimdAesMix            0      0.00%     84.68% # Class of committed instruction. (Count)
system.cpu11.commitStats0.committedInstType::SimdSha1Hash            0      0.00%     84.68% # Class of committed instruction. (Count)
system.cpu11.commitStats0.committedInstType::SimdSha1Hash2            0      0.00%     84.68% # Class of committed instruction. (Count)
system.cpu11.commitStats0.committedInstType::SimdSha256Hash            0      0.00%     84.68% # Class of committed instruction. (Count)
system.cpu11.commitStats0.committedInstType::SimdSha256Hash2            0      0.00%     84.68% # Class of committed instruction. (Count)
system.cpu11.commitStats0.committedInstType::SimdShaSigma2            0      0.00%     84.68% # Class of committed instruction. (Count)
system.cpu11.commitStats0.committedInstType::SimdShaSigma3            0      0.00%     84.68% # Class of committed instruction. (Count)
system.cpu11.commitStats0.committedInstType::SimdPredAlu            0      0.00%     84.68% # Class of committed instruction. (Count)
system.cpu11.commitStats0.committedInstType::Matrix            0      0.00%     84.68% # Class of committed instruction. (Count)
system.cpu11.commitStats0.committedInstType::MatrixMov            0      0.00%     84.68% # Class of committed instruction. (Count)
system.cpu11.commitStats0.committedInstType::MatrixOP            0      0.00%     84.68% # Class of committed instruction. (Count)
system.cpu11.commitStats0.committedInstType::MemRead        52071     12.45%     97.13% # Class of committed instruction. (Count)
system.cpu11.commitStats0.committedInstType::MemWrite        11370      2.72%     99.85% # Class of committed instruction. (Count)
system.cpu11.commitStats0.committedInstType::FloatMemRead          121      0.03%     99.87% # Class of committed instruction. (Count)
system.cpu11.commitStats0.committedInstType::FloatMemWrite          523      0.13%    100.00% # Class of committed instruction. (Count)
system.cpu11.commitStats0.committedInstType::IprAccess            0      0.00%    100.00% # Class of committed instruction. (Count)
system.cpu11.commitStats0.committedInstType::InstPrefetch            0      0.00%    100.00% # Class of committed instruction. (Count)
system.cpu11.commitStats0.committedInstType::SimdUnitStrideLoad            0      0.00%    100.00% # Class of committed instruction. (Count)
system.cpu11.commitStats0.committedInstType::SimdUnitStrideStore            0      0.00%    100.00% # Class of committed instruction. (Count)
system.cpu11.commitStats0.committedInstType::SimdUnitStrideMaskLoad            0      0.00%    100.00% # Class of committed instruction. (Count)
system.cpu11.commitStats0.committedInstType::SimdUnitStrideMaskStore            0      0.00%    100.00% # Class of committed instruction. (Count)
system.cpu11.commitStats0.committedInstType::SimdStridedLoad            0      0.00%    100.00% # Class of committed instruction. (Count)
system.cpu11.commitStats0.committedInstType::SimdStridedStore            0      0.00%    100.00% # Class of committed instruction. (Count)
system.cpu11.commitStats0.committedInstType::SimdIndexedLoad            0      0.00%    100.00% # Class of committed instruction. (Count)
system.cpu11.commitStats0.committedInstType::SimdIndexedStore            0      0.00%    100.00% # Class of committed instruction. (Count)
system.cpu11.commitStats0.committedInstType::SimdWholeRegisterLoad            0      0.00%    100.00% # Class of committed instruction. (Count)
system.cpu11.commitStats0.committedInstType::SimdWholeRegisterStore            0      0.00%    100.00% # Class of committed instruction. (Count)
system.cpu11.commitStats0.committedInstType::SimdUnitStrideFaultOnlyFirstLoad            0      0.00%    100.00% # Class of committed instruction. (Count)
system.cpu11.commitStats0.committedInstType::SimdUnitStrideSegmentedLoad            0      0.00%    100.00% # Class of committed instruction. (Count)
system.cpu11.commitStats0.committedInstType::SimdUnitStrideSegmentedStore            0      0.00%    100.00% # Class of committed instruction. (Count)
system.cpu11.commitStats0.committedInstType::SimdUnitStrideSegmentedFaultOnlyFirstLoad            0      0.00%    100.00% # Class of committed instruction. (Count)
system.cpu11.commitStats0.committedInstType::SimdStrideSegmentedLoad            0      0.00%    100.00% # Class of committed instruction. (Count)
system.cpu11.commitStats0.committedInstType::SimdStrideSegmentedStore            0      0.00%    100.00% # Class of committed instruction. (Count)
system.cpu11.commitStats0.committedInstType::SimdExt            0      0.00%    100.00% # Class of committed instruction. (Count)
system.cpu11.commitStats0.committedInstType::SimdFloatExt            0      0.00%    100.00% # Class of committed instruction. (Count)
system.cpu11.commitStats0.committedInstType::SimdConfig            0      0.00%    100.00% # Class of committed instruction. (Count)
system.cpu11.commitStats0.committedInstType::total       418390                       # Class of committed instruction. (Count)
system.cpu11.commitStats0.committedControl::IsControl        73375                       # Class of control type instructions committed (Count)
system.cpu11.commitStats0.committedControl::IsDirectControl        73127                       # Class of control type instructions committed (Count)
system.cpu11.commitStats0.committedControl::IsIndirectControl          248                       # Class of control type instructions committed (Count)
system.cpu11.commitStats0.committedControl::IsCondControl        62839                       # Class of control type instructions committed (Count)
system.cpu11.commitStats0.committedControl::IsUncondControl        10536                       # Class of control type instructions committed (Count)
system.cpu11.commitStats0.committedControl::IsCall          180                       # Class of control type instructions committed (Count)
system.cpu11.commitStats0.committedControl::IsReturn          175                       # Class of control type instructions committed (Count)
system.cpu11.exec_context.thread_0.numMatAluAccesses            0                       # Number of matrix alu accesses (Count)
system.cpu11.exec_context.thread_0.numCallsReturns          355                       # Number of times a function call or return occured (Count)
system.cpu11.exec_context.thread_0.numMatInsts            0                       # Number of matrix instructions (Count)
system.cpu11.exec_context.thread_0.numIdleCycles   203.993614                       # Number of idle cycles (Cycle)
system.cpu11.exec_context.thread_0.numBusyCycles 4962203.006386                       # Number of busy cycles (Cycle)
system.cpu11.exec_context.thread_0.notIdleFraction     0.999959                       # Percentage of non-idle cycles (Ratio)
system.cpu11.exec_context.thread_0.idleFraction     0.000041                       # Percentage of idle cycles (Ratio)
system.cpu11.executeStats0.numInsts                 0                       # Number of executed instructions (Count)
system.cpu11.executeStats0.numNop                   0                       # Number of nop insts executed (Count)
system.cpu11.executeStats0.numBranches              0                       # Number of branches executed (Count)
system.cpu11.executeStats0.numLoadInsts             0                       # Number of load instructions executed (Count)
system.cpu11.executeStats0.numStoreInsts        64085                       # Number of stores executed (Count)
system.cpu11.executeStats0.instRate                 0                       # Inst execution rate ((Count/Cycle))
system.cpu11.executeStats0.numFpAluAccesses         1354                       # Number of float alu accesses (Count)
system.cpu11.executeStats0.numFpRegReads         1462                       # Number of times the floating registers were read (Count)
system.cpu11.executeStats0.numFpRegWrites          785                       # Number of times the floating registers were written (Count)
system.cpu11.executeStats0.numIntAluAccesses       417529                       # Number of integer alu accesses (Count)
system.cpu11.executeStats0.numIntRegReads       406159                       # Number of times the integer registers were read (Count)
system.cpu11.executeStats0.numIntRegWrites       269455                       # Number of times the integer registers were written (Count)
system.cpu11.executeStats0.numMemRefs           64085                       # Number of memory refs (Count)
system.cpu11.executeStats0.numMiscRegReads       211050                       # Number of times the Misc registers were read (Count)
system.cpu11.executeStats0.numVecAluAccesses            0                       # Number of vector alu accesses (Count)
system.cpu11.executeStats0.numDiscardedOps            0                       # Number of ops (including micro ops) which were discarded before commit (Count)
system.cpu11.fetchStats0.numInsts              203950                       # Number of instructions fetched (thread level) (Count)
system.cpu11.fetchStats0.numOps                418390                       # Number of ops (including micro ops) fetched (thread level) (Count)
system.cpu11.fetchStats0.fetchRate           0.041099                       # Number of inst fetches per cycle ((Count/Cycle))
system.cpu11.fetchStats0.numBranches            73375                       # Number of branches fetched (Count)
system.cpu11.fetchStats0.branchRate          0.014786                       # Number of branch fetches per cycle (Ratio)
system.cpu11.fetchStats0.numFetchSuspends            0                       # Number of times Execute suspended instruction fetching (Count)
system.cpu11.interrupts.clk_domain.clock         8000                       # Clock period in ticks (Tick)
system.cpu11.mmu.dtb.rdAccesses                 52196                       # TLB accesses on read requests (Count)
system.cpu11.mmu.dtb.wrAccesses                 11893                       # TLB accesses on write requests (Count)
system.cpu11.mmu.dtb.rdMisses                      17                       # TLB misses on read requests (Count)
system.cpu11.mmu.dtb.wrMisses                       9                       # TLB misses on write requests (Count)
system.cpu11.mmu.dtb.walker.power_state.pwrStateResidencyTicks::UNDEFINED   2481305500                       # Cumulative time (in ticks) in various power states (Tick)
system.cpu11.mmu.itb.rdAccesses                     0                       # TLB accesses on read requests (Count)
system.cpu11.mmu.itb.wrAccesses                288582                       # TLB accesses on write requests (Count)
system.cpu11.mmu.itb.rdMisses                       0                       # TLB misses on read requests (Count)
system.cpu11.mmu.itb.wrMisses                      46                       # TLB misses on write requests (Count)
system.cpu11.mmu.itb.walker.power_state.pwrStateResidencyTicks::UNDEFINED   2481305500                       # Cumulative time (in ticks) in various power states (Tick)
system.cpu11.power_state.pwrStateResidencyTicks::ON   2481305500                       # Cumulative time (in ticks) in various power states (Tick)
system.cpu11.thread_0.numInsts                      0                       # Number of Instructions committed (Count)
system.cpu11.thread_0.numOps                        0                       # Number of Ops committed (Count)
system.cpu11.thread_0.numMemRefs                    0                       # Number of Memory References (Count)
system.cpu11.workload.numSyscalls                  15                       # Number of system calls (Count)
system.cpu12.numCycles                        4961976                       # Number of cpu cycles simulated (Cycle)
system.cpu12.cpi                            33.947307                       # CPI: cycles per instruction (core level) ((Cycle/Count))
system.cpu12.ipc                             0.029457                       # IPC: instructions per cycle (core level) ((Count/Cycle))
system.cpu12.numWorkItemsStarted                    0                       # Number of work items this cpu started (Count)
system.cpu12.numWorkItemsCompleted                  0                       # Number of work items this cpu completed (Count)
system.cpu12.commitStats0.numInsts             146167                       # Number of instructions committed (thread level) (Count)
[...]
system.ruby.network.routers7.throttle01.link_utilization     1.437872                       # Average link utilization (Ratio)
system.ruby.network.routers7.throttle01.total_msg_count        59576                       # Total number of messages forwarded by this switch (Count)
system.ruby.network.routers7.throttle01.total_msg_bytes      1141696                       # Total number of bytes forwarded by this switch (Byte)
system.ruby.network.routers7.throttle01.total_data_msg_bytes       665088                       # Total number of data bytes forwarded by this switch (Byte)
system.ruby.network.routers7.throttle01.total_msg_wait_time       770000                       # Total time spend forwarding messages (Tick)
system.ruby.network.routers7.throttle01.total_stall_cy            0                       # Total time spent blocked on any output link (Cycle)
system.ruby.network.routers7.throttle01.total_bw_sat_cy        41568                       # Total time bandwidth was saturated on any output link (Cycle)
system.ruby.network.routers7.throttle01.avg_msg_wait_time    12.924668                       # Average time a message took to be forwarded (Ratio)
system.ruby.network.routers7.throttle01.avg_bandwidth         0.43                       # Average bandwidth (GB/s) (Ratio)
system.ruby.network.routers7.throttle01.avg_useful_bandwidth         0.25                       # Average useful (only data) bandwidth (GB/s) (Ratio)
system.ruby.network.routers7.throttle01.msg_count.Control::0        20416                       (Unspecified)
system.ruby.network.routers7.throttle01.msg_bytes.Control::0       163328                       (Unspecified)
system.ruby.network.routers7.throttle01.msg_count.Response_Data::1        10388                       (Unspecified)
system.ruby.network.routers7.throttle01.msg_bytes.Response_Data::1       747936                       (Unspecified)
system.ruby.network.routers7.throttle01.msg_count.Response_Control::1        10030                       (Unspecified)
system.ruby.network.routers7.throttle01.msg_count.Response_Control::2        18738                       (Unspecified)
system.ruby.network.routers7.throttle01.msg_bytes.Response_Control::1        80240                       (Unspecified)
system.ruby.network.routers7.throttle01.msg_bytes.Response_Control::2       149904                       (Unspecified)
system.ruby.network.routers7.throttle01.msg_count.Writeback_Data::1            4                       (Unspecified)
system.ruby.network.routers7.throttle01.msg_bytes.Writeback_Data::1          288                       (Unspecified)
system.ruby.network.routers8.percent_links_utilized     1.685781                       (Unspecified)
system.ruby.network.routers8.msg_count.Control::0        16957                       (Unspecified)
system.ruby.network.routers8.msg_bytes.Control::0       135656                       (Unspecified)
system.ruby.network.routers8.msg_count.Request_Control::2        20043                       (Unspecified)
system.ruby.network.routers8.msg_bytes.Request_Control::2       160344                       (Unspecified)
system.ruby.network.routers8.msg_count.Response_Data::1        30808                       (Unspecified)
system.ruby.network.routers8.msg_bytes.Response_Data::1      2218176                       (Unspecified)
system.ruby.network.routers8.msg_count.Response_Control::1        10042                       (Unspecified)
system.ruby.network.routers8.msg_count.Response_Control::2        10276                       (Unspecified)
system.ruby.network.routers8.msg_bytes.Response_Control::1        80336                       (Unspecified)
system.ruby.network.routers8.msg_bytes.Response_Control::2        82208                       (Unspecified)
system.ruby.network.routers8.msg_count.Writeback_Data::1            5                       (Unspecified)
system.ruby.network.routers8.msg_bytes.Writeback_Data::1          360                       (Unspecified)
system.ruby.network.routers8.port_buffers1.m_msg_count        16965                       # Number of messages passed the buffer (Count)
system.ruby.network.routers8.port_buffers1.m_buf_msgs     0.003419                       # Average number of messages in buffer ((Count/Tick))
system.ruby.network.routers8.port_buffers2.m_msg_count        20043                       # Number of messages passed the buffer (Count)
system.ruby.network.routers8.port_buffers2.m_buf_msgs     0.004039                       # Average number of messages in buffer ((Count/Tick))
system.ruby.network.routers8.port_buffers3.m_msg_count        16957                       # Number of messages passed the buffer (Count)
system.ruby.network.routers8.port_buffers3.m_buf_msgs     0.003417                       # Average number of messages in buffer ((Count/Tick))
system.ruby.network.routers8.port_buffers4.m_msg_count        23890                       # Number of messages passed the buffer (Count)
system.ruby.network.routers8.port_buffers4.m_buf_msgs     0.007915                       # Average number of messages in buffer ((Count/Tick))
system.ruby.network.routers8.port_buffers4.m_stall_time      7694000                       # Total number of ticks messages were stalled in this buffer (Tick)
system.ruby.network.routers8.port_buffers4.m_avg_stall_time   322.059439                       # Average stall ticks per message ((Tick/Count))
system.ruby.network.routers8.port_buffers5.m_msg_count        10276                       # Number of messages passed the buffer (Count)
system.ruby.network.routers8.port_buffers5.m_buf_msgs     0.002071                       # Average number of messages in buffer ((Count/Tick))
system.ruby.network.routers8.power_state.pwrStateResidencyTicks::UNDEFINED   2481305500                       # Cumulative time (in ticks) in various power states (Tick)
system.ruby.network.routers8.throttle00.acc_link_utilization        86332                       # Accumulated link utilization system.ruby.network.ext_links08 (Count)
system.ruby.network.routers8.throttle00.link_utilization     1.739649                       # Average link utilization (Ratio)
system.ruby.network.routers8.throttle00.total_msg_count        37008                       # Total number of messages forwarded by this switch (Count)
system.ruby.network.routers8.throttle00.total_msg_bytes      1381312                       # Total number of bytes forwarded by this switch (Byte)
system.ruby.network.routers8.throttle00.total_data_msg_bytes      1085248                       # Total number of data bytes forwarded by this switch (Byte)
system.ruby.network.routers8.throttle00.total_msg_wait_time            0                       # Total time spend forwarding messages (Tick)
system.ruby.network.routers8.throttle00.total_stall_cy            0                       # Total time spent blocked on any output link (Cycle)
system.ruby.network.routers8.throttle00.total_bw_sat_cy        67828                       # Total time bandwidth was saturated on any output link (Cycle)
system.ruby.network.routers8.throttle00.avg_msg_wait_time            0                       # Average time a message took to be forwarded (Ratio)
system.ruby.network.routers8.throttle00.avg_bandwidth         0.52                       # Average bandwidth (GB/s) (Ratio)
system.ruby.network.routers8.throttle00.avg_useful_bandwidth         0.41                       # Average useful (only data) bandwidth (GB/s) (Ratio)
system.ruby.network.routers8.throttle00.msg_count.Request_Control::2        20043                       (Unspecified)
system.ruby.network.routers8.throttle00.msg_bytes.Request_Control::2       160344                       (Unspecified)
system.ruby.network.routers8.throttle00.msg_count.Response_Data::1        16957                       (Unspecified)
system.ruby.network.routers8.throttle00.msg_bytes.Response_Data::1      1220904                       (Unspecified)
system.ruby.network.routers8.throttle00.msg_count.Response_Control::1            8                       (Unspecified)
system.ruby.network.routers8.throttle00.msg_bytes.Response_Control::1           64                       (Unspecified)
system.ruby.network.routers8.throttle01.acc_link_utilization 80985.500000                       # Accumulated link utilization system.ruby.network.int_links08 (Count)
system.ruby.network.routers8.throttle01.link_utilization     1.631913                       # Average link utilization (Ratio)
system.ruby.network.routers8.throttle01.total_msg_count        51123                       # Total number of messages forwarded by this switch (Count)
system.ruby.network.routers8.throttle01.total_msg_bytes      1295768                       # Total number of bytes forwarded by this switch (Byte)
system.ruby.network.routers8.throttle01.total_data_msg_bytes       886784                       # Total number of data bytes forwarded by this switch (Byte)
system.ruby.network.routers8.throttle01.total_msg_wait_time      7694000                       # Total time spend forwarding messages (Tick)
system.ruby.network.routers8.throttle01.total_stall_cy            0                       # Total time spent blocked on any output link (Cycle)
system.ruby.network.routers8.throttle01.total_bw_sat_cy        55424                       # Total time bandwidth was saturated on any output link (Cycle)
system.ruby.network.routers8.throttle01.avg_msg_wait_time   150.499775                       # Average time a message took to be forwarded (Ratio)
system.ruby.network.routers8.throttle01.avg_bandwidth         0.49                       # Average bandwidth (GB/s) (Ratio)
system.ruby.network.routers8.throttle01.avg_useful_bandwidth         0.33                       # Average useful (only data) bandwidth (GB/s) (Ratio)
system.ruby.network.routers8.throttle01.msg_count.Control::0        16957                       (Unspecified)
system.ruby.network.routers8.throttle01.msg_bytes.Control::0       135656                       (Unspecified)
system.ruby.network.routers8.throttle01.msg_count.Response_Data::1        13851                       (Unspecified)
system.ruby.network.routers8.throttle01.msg_bytes.Response_Data::1       997272                       (Unspecified)
system.ruby.network.routers8.throttle01.msg_count.Response_Control::1        10034                       (Unspecified)
system.ruby.network.routers8.throttle01.msg_count.Response_Control::2        10276                       (Unspecified)
system.ruby.network.routers8.throttle01.msg_bytes.Response_Control::1        80272                       (Unspecified)
system.ruby.network.routers8.throttle01.msg_bytes.Response_Control::2        82208                       (Unspecified)
system.ruby.network.routers8.throttle01.msg_count.Writeback_Data::1            5                       (Unspecified)
system.ruby.network.routers8.throttle01.msg_bytes.Writeback_Data::1          360                       (Unspecified)
system.ruby.network.routers9.percent_links_utilized     1.685907                       (Unspecified)
system.ruby.network.routers9.msg_count.Control::0        16959                       (Unspecified)
system.ruby.network.routers9.msg_bytes.Control::0       135672                       (Unspecified)
system.ruby.network.routers9.msg_count.Request_Control::2        20043                       (Unspecified)
system.ruby.network.routers9.msg_bytes.Request_Control::2       160344                       (Unspecified)
system.ruby.network.routers9.msg_count.Response_Data::1        30811                       (Unspecified)
system.ruby.network.routers9.msg_bytes.Response_Data::1      2218392                       (Unspecified)
system.ruby.network.routers9.msg_count.Response_Control::1        10045                       (Unspecified)
system.ruby.network.routers9.msg_count.Response_Control::2        10278                       (Unspecified)
system.ruby.network.routers9.msg_bytes.Response_Control::1        80360                       (Unspecified)
system.ruby.network.routers9.msg_bytes.Response_Control::2        82224                       (Unspecified)
system.ruby.network.routers9.msg_count.Writeback_Data::1            4                       (Unspecified)
system.ruby.network.routers9.msg_bytes.Writeback_Data::1          288                       (Unspecified)
system.ruby.network.routers9.port_buffers1.m_msg_count        16969                       # Number of messages passed the buffer (Count)
system.ruby.network.routers9.port_buffers1.m_buf_msgs     0.003419                       # Average number of messages in buffer ((Count/Tick))
system.ruby.network.routers9.port_buffers2.m_msg_count        20043                       # Number of messages passed the buffer (Count)
system.ruby.network.routers9.port_buffers2.m_buf_msgs     0.004039                       # Average number of messages in buffer ((Count/Tick))
system.ruby.network.routers9.port_buffers3.m_msg_count        16959                       # Number of messages passed the buffer (Count)
system.ruby.network.routers9.port_buffers3.m_buf_msgs     0.003417                       # Average number of messages in buffer ((Count/Tick))
system.ruby.network.routers9.port_buffers4.m_msg_count        23891                       # Number of messages passed the buffer (Count)
system.ruby.network.routers9.port_buffers4.m_buf_msgs     0.007916                       # Average number of messages in buffer ((Count/Tick))
system.ruby.network.routers9.port_buffers4.m_stall_time      7696000                       # Total number of ticks messages were stalled in this buffer (Tick)
system.ruby.network.routers9.port_buffers4.m_avg_stall_time   322.129672                       # Average stall ticks per message ((Tick/Count))
system.ruby.network.routers9.port_buffers5.m_msg_count        10278                       # Number of messages passed the buffer (Count)
system.ruby.network.routers9.port_buffers5.m_buf_msgs     0.002071                       # Average number of messages in buffer ((Count/Tick))
system.ruby.network.routers9.power_state.pwrStateResidencyTicks::UNDEFINED   2481305500                       # Cumulative time (in ticks) in various power states (Tick)
system.ruby.network.routers9.throttle00.acc_link_utilization        86342                       # Accumulated link utilization system.ruby.network.ext_links09 (Count)
system.ruby.network.routers9.throttle00.link_utilization     1.739850                       # Average link utilization (Ratio)
system.ruby.network.routers9.throttle00.total_msg_count        37012                       # Total number of messages forwarded by this switch (Count)
system.ruby.network.routers9.throttle00.total_msg_bytes      1381472                       # Total number of bytes forwarded by this switch (Byte)
system.ruby.network.routers9.throttle00.total_data_msg_bytes      1085376                       # Total number of data bytes forwarded by this switch (Byte)
system.ruby.network.routers9.throttle00.total_msg_wait_time            0                       # Total time spend forwarding messages (Tick)
system.ruby.network.routers9.throttle00.total_stall_cy            0                       # Total time spent blocked on any output link (Cycle)
system.ruby.network.routers9.throttle00.total_bw_sat_cy        67836                       # Total time bandwidth was saturated on any output link (Cycle)
system.ruby.network.routers9.throttle00.avg_msg_wait_time            0                       # Average time a message took to be forwarded (Ratio)
system.ruby.network.routers9.throttle00.avg_bandwidth         0.52                       # Average bandwidth (GB/s) (Ratio)
system.ruby.network.routers9.throttle00.avg_useful_bandwidth         0.41                       # Average useful (only data) bandwidth (GB/s) (Ratio)
system.ruby.network.routers9.throttle00.msg_count.Request_Control::2        20043                       (Unspecified)
system.ruby.network.routers9.throttle00.msg_bytes.Request_Control::2       160344                       (Unspecified)
system.ruby.network.routers9.throttle00.msg_count.Response_Data::1        16959                       (Unspecified)
system.ruby.network.routers9.throttle00.msg_bytes.Response_Data::1      1221048                       (Unspecified)
system.ruby.network.routers9.throttle00.msg_count.Response_Control::1           10                       (Unspecified)
system.ruby.network.routers9.throttle00.msg_bytes.Response_Control::1           80                       (Unspecified)
system.ruby.network.routers9.throttle01.acc_link_utilization        80988                       # Accumulated link utilization system.ruby.network.int_links09 (Count)
system.ruby.network.routers9.throttle01.link_utilization     1.631963                       # Average link utilization (Ratio)
system.ruby.network.routers9.throttle01.total_msg_count        51128                       # Total number of messages forwarded by this switch (Count)
system.ruby.network.routers9.throttle01.total_msg_bytes      1295808                       # Total number of bytes forwarded by this switch (Byte)
system.ruby.network.routers9.throttle01.total_data_msg_bytes       886784                       # Total number of data bytes forwarded by this switch (Byte)
system.ruby.network.routers9.throttle01.total_msg_wait_time      7696000                       # Total time spend forwarding messages (Tick)
system.ruby.network.routers9.throttle01.total_stall_cy            0                       # Total time spent blocked on any output link (Cycle)
system.ruby.network.routers9.throttle01.total_bw_sat_cy        55424                       # Total time bandwidth was saturated on any output link (Cycle)
system.ruby.network.routers9.throttle01.avg_msg_wait_time   150.524175                       # Average time a message took to be forwarded (Ratio)
system.ruby.network.routers9.throttle01.avg_bandwidth         0.49                       # Average bandwidth (GB/s) (Ratio)
system.ruby.network.routers9.throttle01.avg_useful_bandwidth         0.33                       # Average useful (only data) bandwidth (GB/s) (Ratio)
system.ruby.network.routers9.throttle01.msg_count.Control::0        16959                       (Unspecified)
system.ruby.network.routers9.throttle01.msg_bytes.Control::0       135672                       (Unspecified)
system.ruby.network.routers9.throttle01.msg_count.Response_Data::1        13852                       (Unspecified)
system.ruby.network.routers9.throttle01.msg_bytes.Response_Data::1       997344                       (Unspecified)
system.ruby.network.routers9.throttle01.msg_count.Response_Control::1        10035                       (Unspecified)
system.ruby.network.routers9.throttle01.msg_count.Response_Control::2        10278                       (Unspecified)
system.ruby.network.routers9.throttle01.msg_bytes.Response_Control::1        80280                       (Unspecified)
system.ruby.network.routers9.throttle01.msg_bytes.Response_Control::2        82224                       (Unspecified)
system.ruby.network.routers9.throttle01.msg_count.Writeback_Data::1            4                       (Unspecified)
system.ruby.network.routers9.throttle01.msg_bytes.Writeback_Data::1          288                       (Unspecified)
system.ruby.power_state.pwrStateResidencyTicks::UNDEFINED   2481305500                       # Cumulative time (in ticks) in various power states (Tick)
system.sys_port_proxy.power_state.pwrStateResidencyTicks::UNDEFINED   2481305500                       # Cumulative time (in ticks) in various power states (Tick)
system.voltage_domain.voltage                       1                       # Voltage in Volts (Volt)
system.workload.inst.arm                            0                       # number of arm instructions executed (Count)
system.workload.inst.quiesce                        0                       # number of quiesce instructions executed (Count)

---------- End Simulation Statistics   ----------
