
---------- Begin Simulation Statistics ----------
simSeconds                                   0.003018                       # Number of seconds simulated (Second)
simTicks                                   3018342000                       # Number of ticks simulated (Tick)
finalTick                                  3018342000                       # Number of ticks from beginning of simulation (restored from checkpoints and never reset) (Tick)
simFreq                                  1000000000000                       # The number of ticks per simulated second ((Tick/Second))
hostSeconds                                     14.22                       # Real time elapsed on the host (Second)
hostTickRate                                212227951                       # The number of ticks simulated per host second (ticks/s) ((Tick/Second))
hostMemory                                    2842836                       # Number of bytes of host memory used (Byte)
simInsts                                      2248362                       # Number of instructions simulated (Count)
simOps                                        4325774                       # Number of ops (including micro ops) simulated (Count)
hostInstRate                                   158088                       # Simulator instruction rate (inst/s) ((Count/Second))
hostOpRate                                     304155                       # Simulator op (including micro ops) rate (op/s) ((Count/Second))
system.clk_domain.clock                          1000                       # Clock period in ticks (Tick)
system.cpu0.numCycles                         6036684                       # Number of cpu cycles simulated (Cycle)
system.cpu0.cpi                             42.644899                       # CPI: cycles per instruction (core level) ((Cycle/Count))
system.cpu0.ipc                              0.023449                       # IPC: instructions per cycle (core level) ((Count/Cycle))
system.cpu0.numWorkItemsStarted                     0                       # Number of work items this cpu started (Count)
system.cpu0.numWorkItemsCompleted                   0                       # Number of work items this cpu completed (Count)
system.cpu0.commitStats0.numInsts              141557                       # Number of instructions committed (thread level) (Count)
system.cpu0.commitStats0.numOps                271887                       # Number of ops (including micro ops) committed (thread level) (Count)
system.cpu0.commitStats0.numInstsNotNOP             0                       # Number of instructions committed excluding NOPs or prefetches (Count)
system.cpu0.commitStats0.numOpsNotNOP               0                       # Number of Ops (including micro ops) Simulated (Count)
system.cpu0.commitStats0.cpi                42.644899                       # CPI: cycles per instruction (thread level) ((Cycle/Count))
system.cpu0.commitStats0.ipc                 0.023449                       # IPC: instructions per cycle (thread level) ((Count/Cycle))
system.cpu0.commitStats0.numMemRefs                 0                       # Number of memory references committed (Count)
system.cpu0.commitStats0.numFpInsts              1354                       # Number of float instructions (Count)
system.cpu0.commitStats0.numIntInsts           271026                       # Number of integer instructions (Count)
system.cpu0.commitStats0.numLoadInsts           11938                       # Number of load instructions (Count)
system.cpu0.commitStats0.numStoreInsts          12550                       # Number of store instructions (Count)
system.cpu0.commitStats0.numVecInsts                0                       # Number of vector instructions (Count)
system.cpu0.commitStats0.committedInstType::No_OpClass          209      0.08%      0.08% # Class of committed instruction. (Count)
system.cpu0.commitStats0.committedInstType::IntAlu       246603     90.70%     90.78% # Class of committed instruction. (Count)
system.cpu0.commitStats0.committedInstType::IntMult           13      0.00%     90.78% # Class of committed instruction. (Count)
system.cpu0.commitStats0.committedInstType::IntDiv           21      0.01%     90.79% # Class of committed instruction. (Count)
system.cpu0.commitStats0.committedInstType::FloatAdd          172      0.06%     90.85% # Class of committed instruction. (Count)
system.cpu0.commitStats0.committedInstType::FloatCmp            0      0.00%     90.85% # Class of committed instruction. (Count)
system.cpu0.commitStats0.committedInstType::FloatCvt            0      0.00%     90.85% # Class of committed instruction. (Count)
system.cpu0.commitStats0.committedInstType::FloatMult            0      0.00%     90.85% # Class of committed instruction. (Count)
system.cpu0.commitStats0.committedInstType::FloatMultAcc            0      0.00%     90.85% # Class of committed instruction. (Count)
system.cpu0.commitStats0.committedInstType::FloatDiv            0      0.00%     90.85% # Class of committed instruction. (Count)
system.cpu0.commitStats0.committedInstType::FloatMisc            0      0.00%     90.85% # Class of committed instruction. (Count)
system.cpu0.commitStats0.committedInstType::FloatSqrt            0      0.00%     90.85% # Class of committed instruction. (Count)
system.cpu0.commitStats0.committedInstType::SimdAdd            8      0.00%     90.86% # Class of committed instruction. (Count)
system.cpu0.commitStats0.committedInstType::SimdAddAcc            0      0.00%     90.86% # Class of committed instruction. (Count)
system.cpu0.commitStats0.committedInstType::SimdAlu           96      0.04%     90.89% # Class of committed instruction. (Count)
system.cpu0.commitStats0.committedInstType::SimdCmp            0      0.00%     90.89% # Class of committed instruction. (Count)
system.cpu0.commitStats0.committedInstType::SimdCvt           48      0.02%     90.91% # Class of committed instruction. (Count)
system.cpu0.commitStats0.committedInstType::SimdMisc          229      0.08%     90.99% # Class of committed instruction. (Count)
system.cpu0.commitStats0.committedInstType::SimdMult            0      0.00%     90.99% # Class of committed instruction. (Count)
system.cpu0.commitStats0.committedInstType::SimdMultAcc            0      0.00%     90.99% # Class of committed instruction. (Count)
system.cpu0.commitStats0.committedInstType::SimdMatMultAcc            0      0.00%     90.99% # Class of committed instruction. (Count)
system.cpu0.commitStats0.committedInstType::SimdShift            0      0.00%     90.99% # Class of committed instruction. (Count)
system.cpu0.commitStats0.committedInstType::SimdShiftAcc            0      0.00%     90.99% # Class of committed instruction. (Count)
system.cpu0.commitStats0.committedInstType::SimdDiv            0      0.00%     90.99% # Class of committed instruction. (Count)
system.cpu0.commitStats0.committedInstType::SimdSqrt            0      0.00%     90.99% # Class of committed instruction. (Count)
system.cpu0.commitStats0.committedInstType::SimdFloatAdd            0      0.00%     90.99% # Class of committed instruction. (Count)
system.cpu0.commitStats0.committedInstType::SimdFloatAlu            0      0.00%     90.99% # Class of committed instruction. (Count)
system.cpu0.commitStats0.committedInstType::SimdFloatCmp            0      0.00%     90.99% # Class of committed instruction. (Count)
system.cpu0.commitStats0.committedInstType::SimdFloatCvt            0      0.00%     90.99% # Class of committed instruction. (Count)
system.cpu0.commitStats0.committedInstType::SimdFloatDiv            0      0.00%     90.99% # Class of committed instruction. (Count)
system.cpu0.commitStats0.committedInstType::SimdFloatMisc            0      0.00%     90.99% # Class of committed instruction. (Count)
system.cpu0.commitStats0.committedInstType::SimdFloatMult            0      0.00%     90.99% # Class of committed instruction. (Count)
system.cpu0.commitStats0.committedInstType::SimdFloatMultAcc            0      0.00%     90.99% # Class of committed instruction. (Count)
system.cpu0.commitStats0.committedInstType::SimdFloatMatMultAcc            0      0.00%     90.99% # Class of committed instruction. (Count)
system.cpu0.commitStats0.committedInstType::SimdFloatSqrt            0      0.00%     90.99% # Class of committed instruction. (Count)
system.cpu0.commitStats0.committedInstType::SimdReduceAdd            0      0.00%     90.99% # Class of committed instruction. (Count)
system.cpu0.commitStats0.committedInstType::SimdReduceAlu            0      0.00%     90.99% # Class of committed instruction. (Count)
system.cpu0.commitStats0.committedInstType::SimdReduceCmp            0      0.00%     90.99% # Class of committed instruction. (Count)
system.cpu0.commitStats0.committedInstType::SimdFloatReduceAdd            0      0.00%     90.99% # Class of committed instruction. (Count)
system.cpu0.commitStats0.committedInstType::SimdFloatReduceCmp            0      0.00%     90.99% # Class of committed instruction. (Count)
system.cpu0.commitStats0.committedInstType::SimdAes            0      0.00%     90.99% # Class of committed instruction. (Count)
system.cpu0.commitStats0.committedInstType::SimdAesMix            0      0.00%     90.99% # Class of committed instruction. (Count)
system.cpu0.commitStats0.committedInstType::SimdSha1Hash            0      0.00%     90.99% # Class of committed instruction. (Count)
system.cpu0.commitStats0.committedInstType::SimdSha1Hash2            0      0.00%     90.99% # Class of committed instruction. (Count)
system.cpu0.commitStats0.committedInstType::SimdSha256Hash            0      0.00%     90.99% # Class of committed instruction. (Count)
system.cpu0.commitStats0.committedInstType::SimdSha256Hash2            0      0.00%     90.99% # Class of committed instruction. (Count)
system.cpu0.commitStats0.committedInstType::SimdShaSigma2            0      0.00%     90.99% # Class of committed instruction. (Count)
system.cpu0.commitStats0.committedInstType::SimdShaSigma3            0      0.00%     90.99% # Class of committed instruction. (Count)
system.cpu0.commitStats0.committedInstType::SimdPredAlu            0      0.00%     90.99% # Class of committed instruction. (Count)
system.cpu0.commitStats0.committedInstType::Matrix            0      0.00%     90.99% # Class of committed instruction. (Count)
system.cpu0.commitStats0.committedInstType::MatrixMov            0      0.00%     90.99% # Class of committed instruction. (Count)
system.cpu0.commitStats0.committedInstType::MatrixOP            0      0.00%     90.99% # Class of committed instruction. (Count)
system.cpu0.commitStats0.committedInstType::MemRead        11817      4.35%     95.34% # Class of committed instruction. (Count)
system.cpu0.commitStats0.committedInstType::MemWrite        12027      4.42%     99.76% # Class of committed instruction. (Count)
system.cpu0.commitStats0.committedInstType::FloatMemRead          121      0.04%     99.81% # Class of committed instruction. (Count)
system.cpu0.commitStats0.committedInstType::FloatMemWrite          523      0.19%    100.00% # Class of committed instruction. (Count)
system.cpu0.commitStats0.committedInstType::IprAccess            0      0.00%    100.00% # Class of committed instruction. (Count)
system.cpu0.commitStats0.committedInstType::InstPrefetch            0      0.00%    100.00% # Class of committed instruction. (Count)
system.cpu0.commitStats0.committedInstType::SimdUnitStrideLoad            0      0.00%    100.00% # Class of committed instruction. (Count)
system.cpu0.commitStats0.committedInstType::SimdUnitStrideStore            0      0.00%    100.00% # Class of committed instruction. (Count)
system.cpu0.commitStats0.committedInstType::SimdUnitStrideMaskLoad            0      0.00%    100.00% # Class of committed instruction. (Count)
system.cpu0.commitStats0.committedInstType::SimdUnitStrideMaskStore            0      0.00%    100.00% # Class of committed instruction. (Count)
system.cpu0.commitStats0.committedInstType::SimdStridedLoad            0      0.00%    100.00% # Class of committed instruction. (Count)
system.cpu0.commitStats0.committedInstType::SimdStridedStore            0      0.00%    100.00% # Class of committed instruction. (Count)
system.cpu0.commitStats0.committedInstType::SimdIndexedLoad            0      0.00%    100.00% # Class of committed instruction. (Count)
system.cpu0.commitStats0.committedInstType::SimdIndexedStore            0      0.00%    100.00% # Class of committed instruction. (Count)
system.cpu0.commitStats0.committedInstType::SimdWholeRegisterLoad            0      0.00%    100.00% # Class of committed instruction. (Count)
system.cpu0.commitStats0.committedInstType::SimdWholeRegisterStore            0      0.00%    100.00% # Class of committed instruction. (Count)
system.cpu0.commitStats0.committedInstType::SimdUnitStrideFaultOnlyFirstLoad            0      0.00%    100.00% # Class of committed instruction. (Count)
system.cpu0.commitStats0.committedInstType::SimdUnitStrideSegmentedLoad            0      0.00%    100.00% # Class of committed instruction. (Count)
system.cpu0.commitStats0.committedInstType::SimdUnitStrideSegmentedStore            0      0.00%    100.00% # Class of committed instruction. (Count)
system.cpu0.commitStats0.committedInstType::SimdUnitStrideSegmentedFaultOnlyFirstLoad            0      0.00%    100.00% # Class of committed instruction. (Count)
system.cpu0.commitStats0.committedInstType::SimdStrideSegmentedLoad            0      0.00%    100.00% # Class of committed instruction. (Count)
system.cpu0.commitStats0.committedInstType::SimdStrideSegmentedStore            0      0.00%    100.00% # Class of committed instruction. (Count)
system.cpu0.commitStats0.committedInstType::SimdExt            0      0.00%    100.00% # Class of committed instruction. (Count)
system.cpu0.commitStats0.committedInstType::SimdFloatExt            0      0.00%    100.00% # Class of committed instruction. (Count)
system.cpu0.commitStats0.committedInstType::SimdConfig            0      0.00%    100.00% # Class of committed instruction. (Count)
system.cpu0.commitStats0.committedInstType::total       271887                       # Class of committed instruction. (Count)
system.cpu0.commitStats0.committedControl::IsControl        52165                       # Class of control type instructions committed (Count)
system.cpu0.commitStats0.committedControl::IsDirectControl        51917                       # Class of control type instructions committed (Count)
system.cpu0.commitStats0.committedControl::IsIndirectControl          248                       # Class of control type instructions committed (Count)
system.cpu0.commitStats0.committedControl::IsCondControl        41628                       # Class of control type instructions committed (Count)
system.cpu0.commitStats0.committedControl::IsUncondControl        10537                       # Class of control type instructions committed (Count)
system.cpu0.commitStats0.committedControl::IsCall          180                       # Class of control type instructions committed (Count)
system.cpu0.commitStats0.committedControl::IsReturn          175                       # Class of control type instructions committed (Count)
system.cpu0.exec_context.thread_0.numMatAluAccesses            0                       # Number of matrix alu accesses (Count)
system.cpu0.exec_context.thread_0.numCallsReturns          355                       # Number of times a function call or return occured (Count)
system.cpu0.exec_context.thread_0.numMatInsts            0                       # Number of matrix instructions (Count)
system.cpu0.exec_context.thread_0.numIdleCycles     0.002000                       # Number of idle cycles (Cycle)
system.cpu0.exec_context.thread_0.numBusyCycles 6036683.998000                       # Number of busy cycles (Cycle)
system.cpu0.exec_context.thread_0.notIdleFraction     1.000000                       # Percentage of non-idle cycles (Ratio)
system.cpu0.exec_context.thread_0.idleFraction     0.000000                       # Percentage of idle cycles (Ratio)
system.cpu0.executeStats0.numInsts                  0                       # Number of executed instructions (Count)
system.cpu0.executeStats0.numNop                    0                       # Number of nop insts executed (Count)
system.cpu0.executeStats0.numBranches               0                       # Number of branches executed (Count)
system.cpu0.executeStats0.numLoadInsts              0                       # Number of load instructions executed (Count)
system.cpu0.executeStats0.numStoreInsts         24488                       # Number of stores executed (Count)
system.cpu0.executeStats0.instRate                  0                       # Inst execution rate ((Count/Cycle))
system.cpu0.executeStats0.numFpAluAccesses         1354                       # Number of float alu accesses (Count)
system.cpu0.executeStats0.numFpRegReads          1462                       # Number of times the floating registers were read (Count)
system.cpu0.executeStats0.numFpRegWrites          785                       # Number of times the floating registers were written (Count)
system.cpu0.executeStats0.numIntAluAccesses       271026                       # Number of integer alu accesses (Count)
system.cpu0.executeStats0.numIntRegReads       283639                       # Number of times the integer registers were read (Count)
system.cpu0.executeStats0.numIntRegWrites       164714                       # Number of times the integer registers were written (Count)
system.cpu0.executeStats0.numMemRefs            24488                       # Number of memory refs (Count)
system.cpu0.executeStats0.numMiscRegReads       129033                       # Number of times the Misc registers were read (Count)
system.cpu0.executeStats0.numVecAluAccesses            0                       # Number of vector alu accesses (Count)
system.cpu0.executeStats0.numDiscardedOps            0                       # Number of ops (including micro ops) which were discarded before commit (Count)
system.cpu0.fetchStats0.numInsts               141557                       # Number of instructions fetched (thread level) (Count)
system.cpu0.fetchStats0.numOps                 271887                       # Number of ops (including micro ops) fetched (thread level) (Count)
system.cpu0.fetchStats0.fetchRate            0.023449                       # Number of inst fetches per cycle ((Count/Cycle))
system.cpu0.fetchStats0.numBranches             52165                       # Number of branches fetched (Count)
system.cpu0.fetchStats0.branchRate           0.008641                       # Number of branch fetches per cycle (Ratio)
system.cpu0.fetchStats0.numFetchSuspends            0                       # Number of times Execute suspended instruction fetching (Count)
system.cpu0.interrupts.clk_domain.clock          8000                       # Clock period in ticks (Tick)
system.cpu0.mmu.dtb.rdAccesses                  11942                       # TLB accesses on read requests (Count)
system.cpu0.mmu.dtb.wrAccesses                  12550                       # TLB accesses on write requests (Count)
system.cpu0.mmu.dtb.rdMisses                       15                       # TLB misses on read requests (Count)
system.cpu0.mmu.dtb.wrMisses                       11                       # TLB misses on write requests (Count)
system.cpu0.mmu.dtb.walker.power_state.pwrStateResidencyTicks::UNDEFINED   3018342000                       # Cumulative time (in ticks) in various power states (Tick)
system.cpu0.mmu.itb.rdAccesses                      0                       # TLB accesses on read requests (Count)
system.cpu0.mmu.itb.wrAccesses                 205959                       # TLB accesses on write requests (Count)
system.cpu0.mmu.itb.rdMisses                        0                       # TLB misses on read requests (Count)
system.cpu0.mmu.itb.wrMisses                       46                       # TLB misses on write requests (Count)
system.cpu0.mmu.itb.walker.power_state.pwrStateResidencyTicks::UNDEFINED   3018342000                       # Cumulative time (in ticks) in various power states (Tick)
system.cpu0.power_state.pwrStateResidencyTicks::ON   3018342000                       # Cumulative time (in ticks) in various power states (Tick)
system.cpu0.thread_0.numInsts                       0                       # Number of Instructions committed (Count)
system.cpu0.thread_0.numOps                         0                       # Number of Ops committed (Count)
system.cpu0.thread_0.numMemRefs                     0                       # Number of Memory References (Count)
system.cpu0.workload.numSyscalls                   15                       # Number of system calls (Count)
system.cpu1.numCycles                         6035398                       # Number of cpu cycles simulated (Cycle)
system.cpu1.cpi                             42.981655                       # CPI: cycles per instruction (core level) ((Cycle/Count))
system.cpu1.ipc                              0.023266                       # IPC: instructions per cycle (core level) ((Count/Cycle))
system.cpu1.numWorkItemsStarted                     0                       # Number of work items this cpu started (Count)
system.cpu1.numWorkItemsCompleted                   0                       # Number of work items this cpu completed (Count)
system.cpu1.commitStats0.numInsts              140418                       # Number of instructions committed (thread level) (Count)
system.cpu1.commitStats0.numOps                270156                       # Number of ops (including micro ops) committed (thread level) (Count)
system.cpu1.commitStats0.numInstsNotNOP             0                       # Number of instructions committed excluding NOPs or prefetches (Count)
system.cpu1.commitStats0.numOpsNotNOP               0                       # Number of Ops (including micro ops) Simulated (Count)
system.cpu1.commitStats0.cpi                42.981655                       # CPI: cycles per instruction (thread level) ((Cycle/Count))
system.cpu1.commitStats0.ipc                 0.023266                       # IPC: instructions per cycle (thread level) ((Count/Cycle))
system.cpu1.commitStats0.numMemRefs                 0                       # Number of memory references committed (Count)
system.cpu1.commitStats0.numFpInsts              1354                       # Number of float instructions (Count)
system.cpu1.commitStats0.numIntInsts           269295                       # Number of integer instructions (Count)
system.cpu1.commitStats0.numLoadInsts           12015                       # Number of load instructions (Count)
system.cpu1.commitStats0.numStoreInsts          11893                       # Number of store instructions (Count)
system.cpu1.commitStats0.numVecInsts                0                       # Number of vector instructions (Count)
system.cpu1.commitStats0.committedInstType::No_OpClass          210      0.08%      0.08% # Class of committed instruction. (Count)
system.cpu1.commitStats0.committedInstType::IntAlu       245451     90.86%     90.93% # Class of committed instruction. (Count)
system.cpu1.commitStats0.committedInstType::IntMult           13      0.00%     90.94% # Class of committed instruction. (Count)
system.cpu1.commitStats0.committedInstType::IntDiv           21      0.01%     90.95% # Class of committed instruction. (Count)
system.cpu1.commitStats0.committedInstType::FloatAdd          172      0.06%     91.01% # Class of committed instruction. (Count)
system.cpu1.commitStats0.committedInstType::FloatCmp            0      0.00%     91.01% # Class of committed instruction. (Count)
system.cpu1.commitStats0.committedInstType::FloatCvt            0      0.00%     91.01% # Class of committed instruction. (Count)
system.cpu1.commitStats0.committedInstType::FloatMult            0      0.00%     91.01% # Class of committed instruction. (Count)
system.cpu1.commitStats0.committedInstType::FloatMultAcc            0      0.00%     91.01% # Class of committed instruction. (Count)
system.cpu1.commitStats0.committedInstType::FloatDiv            0      0.00%     91.01% # Class of committed instruction. (Count)
system.cpu1.commitStats0.committedInstType::FloatMisc            0      0.00%     91.01% # Class of committed instruction. (Count)
system.cpu1.commitStats0.committedInstType::FloatSqrt            0      0.00%     91.01% # Class of committed instruction. (Count)
system.cpu1.commitStats0.committedInstType::SimdAdd            8      0.00%     91.01% # Class of committed instruction. (Count)
system.cpu1.commitStats0.committedInstType::SimdAddAcc            0      0.00%     91.01% # Class of committed instruction. (Count)
system.cpu1.commitStats0.committedInstType::SimdAlu           96      0.04%     91.05% # Class of committed instruction. (Count)
system.cpu1.commitStats0.committedInstType::SimdCmp            0      0.00%     91.05% # Class of committed instruction. (Count)
system.cpu1.commitStats0.committedInstType::SimdCvt           48      0.02%     91.07% # Class of committed instruction. (Count)
system.cpu1.commitStats0.committedInstType::SimdMisc          229      0.08%     91.15% # Class of committed instruction. (Count)
system.cpu1.commitStats0.committedInstType::SimdMult            0      0.00%     91.15% # Class of committed instruction. (Count)
system.cpu1.commitStats0.committedInstType::SimdMultAcc            0      0.00%     91.15% # Class of committed instruction. (Count)
system.cpu1.commitStats0.committedInstType::SimdMatMultAcc            0      0.00%     91.15% # Class of committed instruction. (Count)
system.cpu1.commitStats0.committedInstType::SimdShift            0      0.00%     91.15% # Class of committed instruction. (Count)
system.cpu1.commitStats0.committedInstType::SimdShiftAcc            0      0.00%     91.15% # Class of committed instruction. (Count)
system.cpu1.commitStats0.committedInstType::SimdDiv            0      0.00%     91.15% # Class of committed instruction. (Count)
system.cpu1.commitStats0.committedInstType::SimdSqrt            0      0.00%     91.15% # Class of committed instruction. (Count)
system.cpu1.commitStats0.committedInstType::SimdFloatAdd            0      0.00%     91.15% # Class of committed instruction. (Count)
system.cpu1.commitStats0.committedInstType::SimdFloatAlu            0      0.00%     91.15% # Class of committed instruction. (Count)
system.cpu1.commitStats0.committedInstType::SimdFloatCmp            0      0.00%     91.15% # Class of committed instruction. (Count)
system.cpu1.commitStats0.committedInstType::SimdFloatCvt            0      0.00%     91.15% # Class of committed instruction. (Count)
system.cpu1.commitStats0.committedInstType::SimdFloatDiv            0      0.00%     91.15% # Class of committed instruction. (Count)
system.cpu1.commitStats0.committedInstType::SimdFloatMisc            0      0.00%     91.15% # Class of committed instruction. (Count)
system.cpu1.commitStats0.committedInstType::SimdFloatMult            0      0.00%     91.15% # Class of committed instruction. (Count)
system.cpu1.commitStats0.committedInstType::SimdFloatMultAcc            0      0.00%     91.15% # Class of committed instruction. (Count)
system.cpu1.commitStats0.committedInstType::SimdFloatMatMultAcc            0      0.00%     91.15% # Class of committed instruction. (Count)
system.cpu1.commitStats0.committedInstType::SimdFloatSqrt            0      0.00%     91.15% # Class of committed instruction. (Count)
system.cpu1.commitStats0.committedInstType::SimdReduceAdd            0      0.00%     91.15% # Class of committed instruction. (Count)
system.cpu1.commitStats0.committedInstType::SimdReduceAlu            0      0.00%     91.15% # Class of committed instruction. (Count)
system.cpu1.commitStats0.committedInstType::SimdReduceCmp            0      0.00%     91.15% # Class of committed instruction. (Count)
system.cpu1.commitStats0.committedInstType::SimdFloatReduceAdd            0      0.00%     91.15% # Class of committed instruction. (Count)
system.cpu1.commitStats0.committedInstType::SimdFloatReduceCmp            0      0.00%     91.15% # Class of committed instruction. (Count)
system.cpu1.commitStats0.committedInstType::SimdAes            0      0.00%     91.15% # Class of committed instruction. (Count)
system.cpu1.commitStats0.committedInstType::SimdAesMix            0      0.00%     91.15% # Class of committed instruction. (Count)
system.cpu1.commitStats0.committedInstType::SimdSha1Hash            0      0.00%     91.15% # Class of committed instruction. (Count)
system.cpu1.commitStats0.committedInstType::SimdSha1Hash2            0      0.00%     91.15% # Class of committed instruction. (Count)
system.cpu1.commitStats0.committedInstType::SimdSha256Hash            0      0.00%     91.15% # Class of committed instruction. (Count)
system.cpu1.commitStats0.committedInstType::SimdSha256Hash2            0      0.00%     91.15% # Class of committed instruction. (Count)
system.cpu1.commitStats0.committedInstType::SimdShaSigma2            0      0.00%     91.15% # Class of committed instruction. (Count)
system.cpu1.commitStats0.committedInstType::SimdShaSigma3            0      0.00%     91.15% # Class of committed instruction. (Count)
system.cpu1.commitStats0.committedInstType::SimdPredAlu            0      0.00%     91.15% # Class of committed instruction. (Count)
system.cpu1.commitStats0.committedInstType::Matrix            0      0.00%     91.15% # Class of committed instruction. (Count)
system.cpu1.commitStats0.committedInstType::MatrixMov            0      0.00%     91.15% # Class of committed instruction. (Count)
system.cpu1.commitStats0.committedInstType::MatrixOP            0      0.00%     91.15% # Class of committed instruction. (Count)
system.cpu1.commitStats0.committedInstType::MemRead        11894      4.40%     95.55% # Class of committed instruction. (Count)
system.cpu1.commitStats0.committedInstType::MemWrite        11370      4.21%     99.76% # Class of committed instruction. (Count)
system.cpu1.commitStats0.committedInstType::FloatMemRead          121      0.04%     99.81% # Class of committed instruction. (Count)
system.cpu1.commitStats0.committedInstType::FloatMemWrite          523      0.19%    100.00% # Class of committed instruction. (Count)
system.cpu1.commitStats0.committedInstType::IprAccess            0      0.00%    100.00% # Class of committed instruction. (Count)
system.cpu1.commitStats0.committedInstType::InstPrefetch            0      0.00%    100.00% # Class of committed instruction. (Count)
system.cpu1.commitStats0.committedInstType::SimdUnitStrideLoad            0      0.00%    100.00% # Class of committed instruction. (Count)
system.cpu1.commitStats0.committedInstType::SimdUnitStrideStore            0      0.00%    100.00% # Class of committed instruction. (Count)
system.cpu1.commitStats0.committedInstType::SimdUnitStrideMaskLoad            0      0.00%    100.00% # Class of committed instruction. (Count)
system.cpu1.commitStats0.committedInstType::SimdUnitStrideMaskStore            0      0.00%    100.00% # Class of committed instruction. (Count)
system.cpu1.commitStats0.committedInstType::SimdStridedLoad            0      0.00%    100.00% # Class of committed instruction. (Count)
system.cpu1.commitStats0.committedInstType::SimdStridedStore            0      0.00%    100.00% # Class of committed instruction. (Count)
system.cpu1.commitStats0.committedInstType::SimdIndexedLoad            0      0.00%    100.00% # Class of committed instruction. (Count)
system.cpu1.commitStats0.committedInstType::SimdIndexedStore            0      0.00%    100.00% # Class of committed instruction. (Count)
system.cpu1.commitStats0.committedInstType::SimdWholeRegisterLoad            0      0.00%    100.00% # Class of committed instruction. (Count)
system.cpu1.commitStats0.committedInstType::SimdWholeRegisterStore            0      0.00%    100.00% # Class of committed instruction. (Count)
system.cpu1.commitStats0.committedInstType::SimdUnitStrideFaultOnlyFirstLoad            0      0.00%    100.00% # Class of committed instruction. (Count)
system.cpu1.commitStats0.committedInstType::SimdUnitStrideSegmentedLoad            0      0.00%    100.00% # Class of committed instruction. (Count)
system.cpu1.commitStats0.committedInstType::SimdUnitStrideSegmentedStore            0      0.00%    100.00% # Class of committed instruction. (Count)
system.cpu1.commitStats0.committedInstType::SimdUnitStrideSegmentedFaultOnlyFirstLoad            0      0.00%    100.00% # Class of committed instruction. (Count)
system.cpu1.commitStats0.committedInstType::SimdStrideSegmentedLoad            0      0.00%    100.00% # Class of committed instruction. (Count)
system.cpu1.commitStats0.committedInstType::SimdStrideSegmentedStore            0      0.00%    100.00% # Class of committed instruction. (Count)
system.cpu1.commitStats0.committedInstType::SimdExt            0      0.00%    100.00% # Class of committed instruction. (Count)
system.cpu1.commitStats0.committedInstType::SimdFloatExt            0      0.00%    100.00% # Class of committed instruction. (Count)
system.cpu1.commitStats0.committedInstType::SimdConfig            0      0.00%    100.00% # Class of committed instruction. (Count)
system.cpu1.commitStats0.committedInstType::total       270156                       # Class of committed instruction. (Count)
system.cpu1.commitStats0.committedControl::IsControl        52198                       # Class of control type instructions committed (Count)
system.cpu1.commitStats0.committedControl::IsDirectControl        51950                       # Class of control type instructions committed (Count)
system.cpu1.commitStats0.committedControl::IsIndirectControl          248                       # Class of control type instructions committed (Count)
system.cpu1.commitStats0.committedControl::IsCondControl        41662                       # Class of control type instructions committed (Count)
system.cpu1.commitStats0.committedControl::IsUncondControl        10536                       # Class of control type instructions committed (Count)
system.cpu1.commitStats0.committedControl::IsCall          180                       # Class of control type instructions committed (Count)
system.cpu1.commitStats0.committedControl::IsReturn          175                       # Class of control type instructions committed (Count)
system.cpu1.exec_context.thread_0.numMatAluAccesses            0                       # Number of matrix alu accesses (Count)
system.cpu1.exec_context.thread_0.numCallsReturns          355                       # Number of times a function call or return occured (Count)
system.cpu1.exec_context.thread_0.numMatInsts            0                       # Number of matrix instructions (Count)
system.cpu1.exec_context.thread_0.numIdleCycles  1285.728041                       # Number of idle cycles (Cycle)
system.cpu1.exec_context.thread_0.numBusyCycles 6034112.271959                       # Number of busy cycles (Cycle)
system.cpu1.exec_context.thread_0.notIdleFraction     0.999787                       # Percentage of non-idle cycles (Ratio)
system.cpu1.exec_context.thread_0.idleFraction     0.000213                       # Percentage of idle cycles (Ratio)
system.cpu1.executeStats0.numInsts                  0                       # Number of executed instructions (Count)
system.cpu1.executeStats0.numNop                    0                       # Number of nop insts executed (Count)
system.cpu1.executeStats0.numBranches               0                       # Number of branches executed (Count)
system.cpu1.executeStats0.numLoadInsts              0                       # Number of load instructions executed (Count)
system.cpu1.executeStats0.numStoreInsts         23908                       # Number of stores executed (Count)
system.cpu1.executeStats0.instRate                  0                       # Inst execution rate ((Count/Cycle))
system.cpu1.executeStats0.numFpAluAccesses         1354                       # Number of float alu accesses (Count)
system.cpu1.executeStats0.numFpRegReads          1462                       # Number of times the floating registers were read (Count)
system.cpu1.executeStats0.numFpRegWrites          785                       # Number of times the floating registers were written (Count)
system.cpu1.executeStats0.numIntAluAccesses       269295                       # Number of integer alu accesses (Count)
system.cpu1.executeStats0.numIntRegReads       281254                       # Number of times the integer registers were read (Count)
system.cpu1.executeStats0.numIntRegWrites       163574                       # Number of times the integer registers were written (Count)
system.cpu1.executeStats0.numMemRefs            23908                       # Number of memory refs (Count)
system.cpu1.executeStats0.numMiscRegReads       128519                       # Number of times the Misc registers were read (Count)
system.cpu1.executeStats0.numVecAluAccesses            0                       # Number of vector alu accesses (Count)
system.cpu1.executeStats0.numDiscardedOps            0                       # Number of ops (including micro ops) which were discarded before commit (Count)
system.cpu1.fetchStats0.numInsts               140418                       # Number of instructions fetched (thread level) (Count)
system.cpu1.fetchStats0.numOps                 270156                       # Number of ops (including micro ops) fetched (thread level) (Count)
system.cpu1.fetchStats0.fetchRate            0.023266                       # Number of inst fetches per cycle ((Count/Cycle))
system.cpu1.fetchStats0.numBranches             52198                       # Number of branches fetched (Count)
system.cpu1.fetchStats0.branchRate           0.008649                       # Number of branch fetches per cycle (Ratio)
system.cpu1.fetchStats0.numFetchSuspends            0                       # Number of times Execute suspended instruction fetching (Count)
system.cpu1.interrupts.clk_domain.clock          8000                       # Clock period in ticks (Tick)
system.cpu1.mmu.dtb.rdAccesses                  12019                       # TLB accesses on read requests (Count)
system.cpu1.mmu.dtb.wrAccesses                  11893                       # TLB accesses on write requests (Count)
system.cpu1.mmu.dtb.rdMisses                       17                       # TLB misses on read requests (Count)
system.cpu1.mmu.dtb.wrMisses                        9                       # TLB misses on write requests (Count)
system.cpu1.mmu.dtb.walker.power_state.pwrStateResidencyTicks::UNDEFINED   3018342000                       # Cumulative time (in ticks) in various power states (Tick)
system.cpu1.mmu.itb.rdAccesses                      0                       # TLB accesses on read requests (Count)
system.cpu1.mmu.itb.wrAccesses                 203874                       # TLB accesses on write requests (Count)
system.cpu1.mmu.itb.rdMisses                        0                       # TLB misses on read requests (Count)
system.cpu1.mmu.itb.wrMisses                       46                       # TLB misses on write requests (Count)
system.cpu1.mmu.itb.walker.power_state.pwrStateResidencyTicks::UNDEFINED   3018342000                       # Cumulative time (in ticks) in various power states (Tick)
system.cpu1.power_state.pwrStateResidencyTicks::ON   3018342000                       # Cumulative time (in ticks) in various power states (Tick)
system.cpu1.thread_0.numInsts                       0                       # Number of Instructions committed (Count)
system.cpu1.thread_0.numOps                         0                       # Number of Ops committed (Count)
system.cpu1.thread_0.numMemRefs                     0                       # Number of Memory References (Count)
system.cpu1.workload.numSyscalls                   15                       # Number of system calls (Count)
system.cpu10.numCycles                        6034669                       # Number of cpu cycles simulated (Cycle)
system.cpu10.cpi                            42.926633                       # CPI: cycles per instruction (core level) ((Cycle/Count))
system.cpu10.ipc                             0.023296                       # IPC: instructions per cycle (core level) ((Count/Cycle))
system.cpu10.numWorkItemsStarted                    0                       # Number of work items this cpu started (Count)
system.cpu10.numWorkItemsCompleted                  0                       # Number of work items this cpu completed (Count)
system.cpu10.commitStats0.numInsts             140581                       # Number of instructions committed (thread level) (Count)
system.cpu10.commitStats0.numOps               270529                       # Number of ops (including micro ops) committed (thread level) (Count)
system.cpu10.commitStats0.numInstsNotNOP            0                       # Number of instructions committed excluding NOPs or prefetches (Count)
system.cpu10.commitStats0.numOpsNotNOP              0                       # Number of Ops (including micro ops) Simulated (Count)
system.cpu10.commitStats0.cpi               42.926633                       # CPI: cycles per instruction (thread level) ((Cycle/Count))
system.cpu10.commitStats0.ipc                0.023296                       # IPC: instructions per cycle (thread level) ((Count/Cycle))
system.cpu10.commitStats0.numMemRefs                0                       # Number of memory references committed (Count)
system.cpu10.commitStats0.numFpInsts             1354                       # Number of float instructions (Count)
system.cpu10.commitStats0.numIntInsts          269668                       # Number of integer instructions (Count)
system.cpu10.commitStats0.numLoadInsts          12071                       # Number of load instructions (Count)
system.cpu10.commitStats0.numStoreInsts         11893                       # Number of store instructions (Count)
system.cpu10.commitStats0.numVecInsts               0                       # Number of vector instructions (Count)
system.cpu10.commitStats0.committedInstType::No_OpClass          210      0.08%      0.08% # Class of committed instruction. (Count)
system.cpu10.commitStats0.committedInstType::IntAlu       245767     90.85%     90.92% # Class of committed instruction. (Count)
system.cpu10.commitStats0.committedInstType::IntMult           14      0.01%     90.93% # Class of committed instruction. (Count)
system.cpu10.commitStats0.committedInstType::IntDiv           21      0.01%     90.94% # Class of committed instruction. (Count)
system.cpu10.commitStats0.committedInstType::FloatAdd          172      0.06%     91.00% # Class of committed instruction. (Count)
system.cpu10.commitStats0.committedInstType::FloatCmp            0      0.00%     91.00% # Class of committed instruction. (Count)
system.cpu10.commitStats0.committedInstType::FloatCvt            0      0.00%     91.00% # Class of committed instruction. (Count)
system.cpu10.commitStats0.committedInstType::FloatMult            0      0.00%     91.00% # Class of committed instruction. (Count)
system.cpu10.commitStats0.committedInstType::FloatMultAcc            0      0.00%     91.00% # Class of committed instruction. (Count)
system.cpu10.commitStats0.committedInstType::FloatDiv            0      0.00%     91.00% # Class of committed instruction. (Count)
system.cpu10.commitStats0.committedInstType::FloatMisc            0      0.00%     91.00% # Class of committed instruction. (Count)
system.cpu10.commitStats0.committedInstType::FloatSqrt            0      0.00%     91.00% # Class of committed instruction. (Count)
system.cpu10.commitStats0.committedInstType::SimdAdd            8      0.00%     91.00% # Class of committed instruction. (Count)
system.cpu10.commitStats0.committedInstType::SimdAddAcc            0      0.00%     91.00% # Class of committed instruction. (Count)
system.cpu10.commitStats0.committedInstType::SimdAlu           96      0.04%     91.04% # Class of committed instruction. (Count)
system.cpu10.commitStats0.committedInstType::SimdCmp            0      0.00%     91.04% # Class of committed instruction. (Count)
system.cpu10.commitStats0.committedInstType::SimdCvt           48      0.02%     91.06% # Class of committed instruction. (Count)
system.cpu10.commitStats0.committedInstType::SimdMisc          229      0.08%     91.14% # Class of committed instruction. (Count)
system.cpu10.commitStats0.committedInstType::SimdMult            0      0.00%     91.14% # Class of committed instruction. (Count)
system.cpu10.commitStats0.committedInstType::SimdMultAcc            0      0.00%     91.14% # Class of committed instruction. (Count)
system.cpu10.commitStats0.committedInstType::SimdMatMultAcc            0      0.00%     91.14% # Class of committed instruction. (Count)
system.cpu10.commitStats0.committedInstType::SimdShift            0      0.00%     91.14% # Class of committed instruction. (Count)
system.cpu10.commitStats0.committedInstType::SimdShiftAcc            0      0.00%     91.14% # Class of committed instruction. (Count)
system.cpu10.commitStats0.committedInstType::SimdDiv            0      0.00%     91.14% # Class of committed instruction. (Count)
system.cpu10.commitStats0.committedInstType::SimdSqrt            0      0.00%     91.14% # Class of committed instruction. (Count)
system.cpu10.commitStats0.committedInstType::SimdFloatAdd            0      0.00%     91.14% # Class of committed instruction. (Count)
system.cpu10.commitStats0.committedInstType::SimdFloatAlu            0      0.00%     91.14% # Class of committed instruction. (Count)
system.cpu10.commitStats0.committedInstType::SimdFloatCmp            0      0.00%     91.14% # Class of committed instruction. (Count)
system.cpu10.commitStats0.committedInstType::SimdFloatCvt            0      0.00%     91.14% # Class of committed instruction. (Count)
system.cpu10.commitStats0.committedInstType::SimdFloatDiv            0      0.00%     91.14% # Class of committed instruction. (Count)
system.cpu10.commitStats0.committedInstType::SimdFloatMisc            0      0.00%     91.14% # Class of committed instruction. (Count)
system.cpu10.commitStats0.committedInstType::SimdFloatMult            0      0.00%     91.14% # Class of committed instruction. (Count)
system.cpu10.commitStats0.committedInstType::SimdFloatMultAcc            0      0.00%     91.14% # Class of committed instruction. (Count)
system.cpu10.commitStats0.committedInstType::SimdFloatMatMultAcc            0      0.00%     91.14% # Class of committed instruction. (Count)
system.cpu10.commitStats0.committedInstType::SimdFloatSqrt            0      0.00%     91.14% # Class of committed instruction. (Count)
system.cpu10.commitStats0.committedInstType::SimdReduceAdd            0      0.00%     91.14% # Class of committed instruction. (Count)
system.cpu10.commitStats0.committedInstType::SimdReduceAlu            0      0.00%     91.14% # Class of committed instruction. (Count)
system.cpu10.commitStats0.committedInstType::SimdReduceCmp            0      0.00%     91.14% # Class of committed instruction. (Count)
system.cpu10.commitStats0.committedInstType::SimdFloatReduceAdd            0      0.00%     91.14% # Class of committed instruction. (Count)
system.cpu10.commitStats0.committedInstType::SimdFloatReduceCmp            0      0.00%     91.14% # Class of committed instruction. (Count)
system.cpu10.commitStats0.committedInstType::SimdAes            0      0.00%     91.14% # Class of committed instruction. (Count)
system.cpu10.commitStats0.committedInstType::SimdAesMix            0      0.00%     91.14% # Class of committed instruction. (Count)
system.cpu10.commitStats0.committedInstType::SimdSha1Hash            0      0.00%     91.14% # Class of committed instruction. (Count)
system.cpu10.commitStats0.committedInstType::SimdSha1Hash2            0      0.00%     91.14% # Class of committed instruction. (Count)
system.cpu10.commitStats0.committedInstType::SimdSha256Hash            0      0.00%     91.14% # Class of committed instruction. (Count)
system.cpu10.commitStats0.committedInstType::SimdSha256Hash2            0      0.00%     91.14% # Class of committed instruction. (Count)
system.cpu10.commitStats0.committedInstType::SimdShaSigma2            0      0.00%     91.14% # Class of committed instruction. (Count)
system.cpu10.commitStats0.committedInstType::SimdShaSigma3            0      0.00%     91.14% # Class of committed instruction. (Count)
system.cpu10.commitStats0.committedInstType::SimdPredAlu            0      0.00%     91.14% # Class of committed instruction. (Count)
system.cpu10.commitStats0.committedInstType::Matrix            0      0.00%     91.14% # Class of committed instruction. (Count)
system.cpu10.commitStats0.committedInstType::MatrixMov            0      0.00%     91.14% # Class of committed instruction. (Count)
system.cpu10.commitStats0.committedInstType::MatrixOP            0      0.00%     91.14% # Class of committed instruction. (Count)
system.cpu10.commitStats0.committedInstType::MemRead        11950      4.42%     95.56% # Class of committed instruction. (Count)
system.cpu10.commitStats0.committedInstType::MemWrite        11370      4.20%     99.76% # Class of committed instruction. (Count)
system.cpu10.commitStats0.committedInstType::FloatMemRead          121      0.04%     99.81% # Class of committed instruction. (Count)
system.cpu10.commitStats0.committedInstType::FloatMemWrite          523      0.19%    100.00% # Class of committed instruction. (Count)
system.cpu10.commitStats0.committedInstType::IprAccess            0      0.00%    100.00% # Class of committed instruction. (Count)
system.cpu10.commitStats0.committedInstType::InstPrefetch            0      0.00%    100.00% # Class of committed instruction. (Count)
system.cpu10.commitStats0.committedInstType::SimdUnitStrideLoad            0      0.00%    100.00% # Class of committed instruction. (Count)
system.cpu10.commitStats0.committedInstType::SimdUnitStrideStore            0      0.00%    100.00% # Class of committed instruction. (Count)
system.cpu10.commitStats0.committedInstType::SimdUnitStrideMaskLoad            0      0.00%    100.00% # Class of committed instruction. (Count)
system.cpu10.commitStats0.committedInstType::SimdUnitStrideMaskStore            0      0.00%    100.00% # Class of committed instruction. (Count)
system.cpu10.commitStats0.committedInstType::SimdStridedLoad            0      0.00%    100.00% # Class of committed instruction. (Count)
system.cpu10.commitStats0.committedInstType::SimdStridedStore            0      0.00%    100.00% # Class of committed instruction. (Count)
system.cpu10.commitStats0.committedInstType::SimdIndexedLoad            0      0.00%    100.00% # Class of committed instruction. (Count)
system.cpu10.commitStats0.committedInstType::SimdIndexedStore            0      0.00%    100.00% # Class of committed instruction. (Count)
system.cpu10.commitStats0.committedInstType::SimdWholeRegisterLoad            0      0.00%    100.00% # Class of committed instruction. (Count)
system.cpu10.commitStats0.committedInstType::SimdWholeRegisterStore            0      0.00%    100.00% # Class of committed instruction. (Count)
system.cpu10.commitStats0.committedInstType::SimdUnitStrideFaultOnlyFirstLoad            0      0.00%    100.00% # Class of committed instruction. (Count)
system.cpu10.commitStats0.committedInstType::SimdUnitStrideSegmentedLoad            0      0.00%    100.00% # Class of committed instruction. (Count)
system.cpu10.commitStats0.committedInstType::SimdUnitStrideSegmentedStore            0      0.00%    100.00% # Class of committed instruction. (Count)
system.cpu10.commitStats0.committedInstType::SimdUnitStrideSegmentedFaultOnlyFirstLoad            0      0.00%    100.00% # Class of committed instruction. (Count)
system.cpu10.commitStats0.committedInstType::SimdStrideSegmentedLoad            0      0.00%    100.00% # Class of committed instruction. (Count)
system.cpu10.commitStats0.committedInstType::SimdStrideSegmentedStore            0      0.00%    100.00% # Class of committed instruction. (Count)
system.cpu10.commitStats0.committedInstType::SimdExt            0      0.00%    100.00% # Class of committed instruction. (Count)
system.cpu10.commitStats0.committedInstType::SimdFloatExt            0      0.00%    100.00% # Class of committed instruction. (Count)
system.cpu10.commitStats0.committedInstType::SimdConfig            0      0.00%    100.00% # Class of committed instruction. (Count)
system.cpu10.commitStats0.committedInstType::total       270529                       # Class of committed instruction. (Count)
system.cpu10.commitStats0.committedControl::IsControl        52252                       # Class of control type instructions committed (Count)
system.cpu10.commitStats0.committedControl::IsDirectControl        52004                       # Class of control type instructions committed (Count)
system.cpu10.commitStats0.committedControl::IsIndirectControl          248                       # Class of control type instructions committed (Count)
system.cpu10.commitStats0.committedControl::IsCondControl        41716                       # Class of control type instructions committed (Count)
system.cpu10.commitStats0.committedControl::IsUncondControl        10536                       # Class of control type instructions committed (Count)
system.cpu10.commitStats0.committedControl::IsCall          180                       # Class of control type instructions committed (Count)
system.cpu10.commitStats0.committedControl::IsReturn          175                       # Class of control type instructions committed (Count)
system.cpu10.exec_context.thread_0.numMatAluAccesses            0                       # Number of matrix alu accesses (Count)
system.cpu10.exec_context.thread_0.numCallsReturns          355                       # Number of times a function call or return occured (Count)
system.cpu10.exec_context.thread_0.numMatInsts            0                       # Number of matrix instructions (Count)
system.cpu10.exec_context.thread_0.numIdleCycles  2014.329407                       # Number of idle cycles (Cycle)
system.cpu10.exec_context.thread_0.numBusyCycles 6032654.670593                       # Number of busy cycles (Cycle)
system.cpu10.exec_context.thread_0.notIdleFraction     0.999666                       # Percentage of non-idle cycles (Ratio)
system.cpu10.exec_context.thread_0.idleFraction     0.000334                       # Percentage of idle cycles (Ratio)
system.cpu10.executeStats0.numInsts                 0                       # Number of executed instructions (Count)
system.cpu10.executeStats0.numNop                   0                       # Number of nop insts executed (Count)
system.cpu10.executeStats0.numBranches              0                       # Number of branches executed (Count)
system.cpu10.executeStats0.numLoadInsts             0                       # Number of load instructions executed (Count)
system.cpu10.executeStats0.numStoreInsts        23964                       # Number of stores executed (Count)
system.cpu10.executeStats0.instRate                 0                       # Inst execution rate ((Count/Cycle))
system.cpu10.executeStats0.numFpAluAccesses         1354                       # Number of float alu accesses (Count)
system.cpu10.executeStats0.numFpRegReads         1462                       # Number of times the floating registers were read (Count)
system.cpu10.executeStats0.numFpRegWrites          785                       # Number of times the floating registers were written (Count)
system.cpu10.executeStats0.numIntAluAccesses       269668                       # Number of integer alu accesses (Count)
system.cpu10.executeStats0.numIntRegReads       281546                       # Number of times the integer registers were read (Count)
system.cpu10.executeStats0.numIntRegWrites       163840                       # Number of times the integer registers were written (Count)
system.cpu10.executeStats0.numMemRefs           23964                       # Number of memory refs (Count)
system.cpu10.executeStats0.numMiscRegReads       128683                       # Number of times the Misc registers were read (Count)
system.cpu10.executeStats0.numVecAluAccesses            0                       # Number of vector alu accesses (Count)
system.cpu10.executeStats0.numDiscardedOps            0                       # Number of ops (including micro ops) which were discarded before commit (Count)
system.cpu10.fetchStats0.numInsts              140581                       # Number of instructions fetched (thread level) (Count)
system.cpu10.fetchStats0.numOps                270529                       # Number of ops (including micro ops) fetched (thread level) (Count)
system.cpu10.fetchStats0.fetchRate           0.023296                       # Number of inst fetches per cycle ((Count/Cycle))
system.cpu10.fetchStats0.numBranches            52252                       # Number of branches fetched (Count)
system.cpu10.fetchStats0.branchRate          0.008659                       # Number of branch fetches per cycle (Ratio)
system.cpu10.fetchStats0.numFetchSuspends            0                       # Number of times Execute suspended instruction fetching (Count)
system.cpu10.interrupts.clk_domain.clock         8000                       # Clock period in ticks (Tick)
system.cpu10.mmu.dtb.rdAccesses                 12075                       # TLB accesses on read requests (Count)
system.cpu10.mmu.dtb.wrAccesses                 11893                       # TLB accesses on write requests (Count)
system.cpu10.mmu.dtb.rdMisses                      17                       # TLB misses on read requests (Count)
system.cpu10.mmu.dtb.wrMisses                       9                       # TLB misses on write requests (Count)
system.cpu10.mmu.dtb.walker.power_state.pwrStateResidencyTicks::UNDEFINED   3018342000                       # Cumulative time (in ticks) in various power states (Tick)
system.cpu10.mmu.itb.rdAccesses                     0                       # TLB accesses on read requests (Count)
system.cpu10.mmu.itb.wrAccesses                204090                       # TLB accesses on write requests (Count)
system.cpu10.mmu.itb.rdMisses                       0                       # TLB misses on read requests (Count)
system.cpu10.mmu.itb.wrMisses                      46                       # TLB misses on write requests (Count)
system.cpu10.mmu.itb.walker.power_state.pwrStateResidencyTicks::UNDEFINED   3018342000                       # Cumulative time (in ticks) in various power states (Tick)
system.cpu10.power_state.pwrStateResidencyTicks::ON   3018342000                       # Cumulative time (in ticks) in various power states (Tick)
system.cpu10.thread_0.numInsts                      0                       # Number of Instructions committed (Count)
system.cpu10.thread_0.numOps                        0                       # Number of Ops committed (Count)
system.cpu10.thread_0.numMemRefs                    0                       # Number of Memory References (Count)
system.cpu10.workload.numSyscalls                  15                       # Number of system calls (Count)
system.cpu11.numCycles                        6035453                       # Number of cpu cycles simulated (Cycle)
system.cpu11.cpi                            42.977149                       # CPI: cycles per instruction (core level) ((Cycle/Count))
system.cpu11.ipc                             0.023268                       # IPC: instructions per cycle (core level) ((Count/Cycle))
system.cpu11.numWorkItemsStarted                    0                       # Number of work items this cpu started (Count)
system.cpu11.numWorkItemsCompleted                  0                       # Number of work items this cpu completed (Count)
system.cpu11.commitStats0.numInsts             140434                       # Number of instructions committed (thread level) (Count)
system.cpu11.commitStats0.numOps               270186                       # Number of ops (including micro ops) committed (thread level) (Count)
system.cpu11.commitStats0.numInstsNotNOP            0                       # Number of instructions committed excluding NOPs or prefetches (Count)
system.cpu11.commitStats0.numOpsNotNOP              0                       # Number of Ops (including micro ops) Simulated (Count)
system.cpu11.commitStats0.cpi               42.977149                       # CPI: cycles per instruction (thread level) ((Cycle/Count))
system.cpu11.commitStats0.ipc                0.023268                       # IPC: instructions per cycle (thread level) ((Count/Cycle))
system.cpu11.commitStats0.numMemRefs                0                       # Number of memory references committed (Count)
system.cpu11.commitStats0.numFpInsts             1354                       # Number of float instructions (Count)
system.cpu11.commitStats0.numIntInsts          269325                       # Number of integer instructions (Count)
system.cpu11.commitStats0.numLoadInsts          12017                       # Number of load instructions (Count)
system.cpu11.commitStats0.numStoreInsts         11893                       # Number of store instructions (Count)
system.cpu11.commitStats0.numVecInsts               0                       # Number of vector instructions (Count)
system.cpu11.commitStats0.committedInstType::No_OpClass          210      0.08%      0.08% # Class of committed instruction. (Count)
system.cpu11.commitStats0.committedInstType::IntAlu       245478     90.86%     90.93% # Class of committed instruction. (Count)
system.cpu11.commitStats0.committedInstType::IntMult           14      0.01%     90.94% # Class of committed instruction. (Count)
system.cpu11.commitStats0.committedInstType::IntDiv           21      0.01%     90.95% # Class of committed instruction. (Count)
system.cpu11.commitStats0.committedInstType::FloatAdd          172      0.06%     91.01% # Class of committed instruction. (Count)
system.cpu11.commitStats0.committedInstType::FloatCmp            0      0.00%     91.01% # Class of committed instruction. (Count)
system.cpu11.commitStats0.committedInstType::FloatCvt            0      0.00%     91.01% # Class of committed instruction. (Count)
system.cpu11.commitStats0.committedInstType::FloatMult            0      0.00%     91.01% # Class of committed instruction. (Count)
system.cpu11.commitStats0.committedInstType::FloatMultAcc            0      0.00%     91.01% # Class of committed instruction. (Count)
system.cpu11.commitStats0.committedInstType::FloatDiv            0      0.00%     91.01% # Class of committed instruction. (Count)
system.cpu11.commitStats0.committedInstType::FloatMisc            0      0.00%     91.01% # Class of committed instruction. (Count)
system.cpu11.commitStats0.committedInstType::FloatSqrt            0      0.00%     91.01% # Class of committed instruction. (Count)
system.cpu11.commitStats0.committedInstType::SimdAdd            8      0.00%     91.01% # Class of committed instruction. (Count)
system.cpu11.commitStats0.committedInstType::SimdAddAcc            0      0.00%     91.01% # Class of committed instruction. (Count)
system.cpu11.commitStats0.committedInstType::SimdAlu           96      0.04%     91.05% # Class of committed instruction. (Count)
system.cpu11.commitStats0.committedInstType::SimdCmp            0      0.00%     91.05% # Class of committed instruction. (Count)
system.cpu11.commitStats0.committedInstType::SimdCvt           48      0.02%     91.07% # Class of committed instruction. (Count)
system.cpu11.commitStats0.committedInstType::SimdMisc          229      0.08%     91.15% # Class of committed instruction. (Count)
system.cpu11.commitStats0.committedInstType::SimdMult            0      0.00%     91.15% # Class of committed instruction. (Count)
system.cpu11.commitStats0.committedInstType::SimdMultAcc            0      0.00%     91.15% # Class of committed instruction. (Count)
system.cpu11.commitStats0.committedInstType::SimdMatMultAcc            0      0.00%     91.15% # Class of committed instruction. (Count)
system.cpu11.commitStats0.committedInstType::SimdShift            0      0.00%     91.15% # Class of committed instruction. (Count)
system.cpu11.commitStats0.committedInstType::SimdShiftAcc            0      0.00%     91.15% # Class of committed instruction. (Count)
system.cpu11.commitStats0.committedInstType::SimdDiv            0      0.00%     91.15% # Class of committed instruction. (Count)
system.cpu11.commitStats0.committedInstType::SimdSqrt            0      0.00%     91.15% # Class of committed instruction. (Count)
system.cpu11.commitStats0.committedInstType::SimdFloatAdd            0      0.00%     91.15% # Class of committed instruction. (Count)
system.cpu11.commitStats0.committedInstType::SimdFloatAlu            0      0.00%     91.15% # Class of committed instruction. (Count)
system.cpu11.commitStats0.committedInstType::SimdFloatCmp            0      0.00%     91.15% # Class of committed instruction. (Count)
system.cpu11.commitStats0.committedInstType::SimdFloatCvt            0      0.00%     91.15% # Class of committed instruction. (Count)
system.cpu11.commitStats0.committedInstType::SimdFloatDiv            0      0.00%     91.15% # Class of committed instruction. (Count)
system.cpu11.commitStats0.committedInstType::SimdFloatMisc            0      0.00%     91.15% # Class of committed instruction. (Count)
system.cpu11.commitStats0.committedInstType::SimdFloatMult            0      0.00%     91.15% # Class of committed instruction. (Count)
system.cpu11.commitStats0.committedInstType::SimdFloatMultAcc            0      0.00%     91.15% # Class of committed instruction. (Count)
system.cpu11.commitStats0.committedInstType::SimdFloatMatMultAcc            0      0.00%     91.15% # Class of committed instruction. (Count)
system.cpu11.commitStats0.committedInstType::SimdFloatSqrt            0      0.00%     91.15% # Class of committed instruction. (Count)
system.cpu11.commitStats0.committedInstType::SimdReduceAdd            0      0.00%     91.15% # Class of committed instruction. (Count)
system.cpu11.commitStats0.committedInstType::SimdReduceAlu            0      0.00%     91.15% # Class of committed instruction. (Count)
system.cpu11.commitStats0.committedInstType::SimdReduceCmp            0      0.00%     91.15% # Class of committed instruction. (Count)
system.cpu11.commitStats0.committedInstType::SimdFloatReduceAdd            0      0.00%     91.15% # Class of committed instruction. (Count)
system.cpu11.commitStats0.committedInstType::SimdFloatReduceCmp            0      0.00%     91.15% # Class of committed instruction. (Count)
system.cpu11.commitStats0.committedInstType::SimdAes            0      0.00%     91.15% # Class of committed instruction. (Count)
system.cpu11.commitStats0.committedInstType::SimdAesMix            0      0.00%     91.15% # Class of committed instruction. (Count)
system.cpu11.commitStats0.committedInstType::SimdSha1Hash            0      0.00%     91.15% # Class of committed instruction. (Count)
system.cpu11.commitStats0.committedInstType::SimdSha1Hash2            0      0.00%     91.15% # Class of committed instruction. (Count)
system.cpu11.commitStats0.committedInstType::SimdSha256Hash            0      0.00%     91.15% # Class of committed instruction. (Count)
system.cpu11.commitStats0.committedInstType::SimdSha256Hash2            0      0.00%     91.15% # Class of committed instruction. (Count)
system.cpu11.commitStats0.committedInstType::SimdShaSigma2            0      0.00%     91.15% # Class of committed instruction. (Count)
system.cpu11.commitStats0.committedInstType::SimdShaSigma3            0      0.00%     91.15% # Class of committed instruction. (Count)
system.cpu11.commitStats0.committedInstType::SimdPredAlu            0      0.00%     91.15% # Class of committed instruction. (Count)
system.cpu11.commitStats0.committedInstType::Matrix            0      0.00%     91.15% # Class of committed instruction. (Count)
system.cpu11.commitStats0.committedInstType::MatrixMov            0      0.00%     91.15% # Class of committed instruction. (Count)
system.cpu11.commitStats0.committedInstType::MatrixOP            0      0.00%     91.15% # Class of committed instruction. (Count)
system.cpu11.commitStats0.committedInstType::MemRead        11896      4.40%     95.55% # Class of committed instruction. (Count)
system.cpu11.commitStats0.committedInstType::MemWrite        11370      4.21%     99.76% # Class of committed instruction. (Count)
system.cpu11.commitStats0.committedInstType::FloatMemRead          121      0.04%     99.81% # Class of committed instruction. (Count)
system.cpu11.commitStats0.committedInstType::FloatMemWrite          523      0.19%    100.00% # Class of committed instruction. (Count)
system.cpu11.commitStats0.committedInstType::IprAccess            0      0.00%    100.00% # Class of committed instruction. (Count)
system.cpu11.commitStats0.committedInstType::InstPrefetch            0      0.00%    100.00% # Class of committed instruction. (Count)
system.cpu11.commitStats0.committedInstType::SimdUnitStrideLoad            0      0.00%    100.00% # Class of committed instruction. (Count)
system.cpu11.commitStats0.committedInstType::SimdUnitStrideStore            0      0.00%    100.00% # Class of committed instruction. (Count)
system.cpu11.commitStats0.committedInstType::SimdUnitStrideMaskLoad            0      0.00%    100.00% # Class of committed instruction. (Count)
system.cpu11.commitStats0.committedInstType::SimdUnitStrideMaskStore            0      0.00%    100.00% # Class of committed instruction. (Count)
system.cpu11.commitStats0.committedInstType::SimdStridedLoad            0      0.00%    100.00% # Class of committed instruction. (Count)
system.cpu11.commitStats0.committedInstType::SimdStridedStore            0      0.00%    100.00% # Class of committed instruction. (Count)
system.cpu11.commitStats0.committedInstType::SimdIndexedLoad            0      0.00%    100.00% # Class of committed instruction. (Count)
system.cpu11.commitStats0.committedInstType::SimdIndexedStore            0      0.00%    100.00% # Class of committed instruction. (Count)
system.cpu11.commitStats0.committedInstType::SimdWholeRegisterLoad            0      0.00%    100.00% # Class of committed instruction. (Count)
system.cpu11.commitStats0.committedInstType::SimdWholeRegisterStore            0      0.00%    100.00% # Class of committed instruction. (Count)
system.cpu11.commitStats0.committedInstType::SimdUnitStrideFaultOnlyFirstLoad            0      0.00%    100.00% # Class of committed instruction. (Count)
system.cpu11.commitStats0.committedInstType::SimdUnitStrideSegmentedLoad            0      0.00%    100.00% # Class of committed instruction. (Count)
system.cpu11.commitStats0.committedInstType::SimdUnitStrideSegmentedStore            0      0.00%    100.00% # Class of committed instruction. (Count)
system.cpu11.commitStats0.committedInstType::SimdUnitStrideSegmentedFaultOnlyFirstLoad            0      0.00%    100.00% # Class of committed instruction. (Count)
system.cpu11.commitStats0.committedInstType::SimdStrideSegmentedLoad            0      0.00%    100.00% # Class of committed instruction. (Count)
system.cpu11.commitStats0.committedInstType::SimdStrideSegmentedStore            0      0.00%    100.00% # Class of committed instruction. (Count)
system.cpu11.commitStats0.committedInstType::SimdExt            0      0.00%    100.00% # Class of committed instruction. (Count)
system.cpu11.commitStats0.committedInstType::SimdFloatExt            0      0.00%    100.00% # Class of committed instruction. (Count)
system.cpu11.commitStats0.committedInstType::SimdConfig            0      0.00%    100.00% # Class of committed instruction. (Count)
system.cpu11.commitStats0.committedInstType::total       270186                       # Class of committed instruction. (Count)
system.cpu11.commitStats0.committedControl::IsControl        52203                       # Class of control type instructions committed (Count)
system.cpu11.commitStats0.committedControl::IsDirectControl        51955                       # Class of control type instructions committed (Count)
system.cpu11.commitStats0.committedControl::IsIndirectControl          248                       # Class of control type instructions committed (Count)
system.cpu11.commitStats0.committedControl::IsCondControl        41667                       # Class of control type instructions committed (Count)
system.cpu11.commitStats0.committedControl::IsUncondControl        10536                       # Class of control type instructions committed (Count)
system.cpu11.commitStats0.committedControl::IsCall          180                       # Class of control type instructions committed (Count)
system.cpu11.commitStats0.committedControl::IsReturn          175                       # Class of control type instructions committed (Count)
system.cpu11.exec_context.thread_0.numMatAluAccesses            0                       # Number of matrix alu accesses (Count)
system.cpu11.exec_context.thread_0.numCallsReturns          355                       # Number of times a function call or return occured (Count)
system.cpu11.exec_context.thread_0.numMatInsts            0                       # Number of matrix instructions (Count)
system.cpu11.exec_context.thread_0.numIdleCycles  1230.750974                       # Number of idle cycles (Cycle)
system.cpu11.exec_context.thread_0.numBusyCycles 6034222.249026                       # Number of busy cycles (Cycle)
system.cpu11.exec_context.thread_0.notIdleFraction     0.999796                       # Percentage of non-idle cycles (Ratio)
system.cpu11.exec_context.thread_0.idleFraction     0.000204                       # Percentage of idle cycles (Ratio)
system.cpu11.executeStats0.numInsts                 0                       # Number of executed instructions (Count)
system.cpu11.executeStats0.numNop                   0                       # Number of nop insts executed (Count)
system.cpu11.executeStats0.numBranches              0                       # Number of branches executed (Count)
system.cpu11.executeStats0.numLoadInsts             0                       # Number of load instructions executed (Count)
system.cpu11.executeStats0.numStoreInsts        23910                       # Number of stores executed (Count)
system.cpu11.executeStats0.instRate                 0                       # Inst execution rate ((Count/Cycle))
system.cpu11.executeStats0.numFpAluAccesses         1354                       # Number of float alu accesses (Count)
system.cpu11.executeStats0.numFpRegReads         1462                       # Number of times the floating registers were read (Count)
system.cpu11.executeStats0.numFpRegWrites          785                       # Number of times the floating registers were written (Count)
system.cpu11.executeStats0.numIntAluAccesses       269325                       # Number of integer alu accesses (Count)
system.cpu11.executeStats0.numIntRegReads       281296                       # Number of times the integer registers were read (Count)
system.cpu11.executeStats0.numIntRegWrites       163595                       # Number of times the integer registers were written (Count)
system.cpu11.executeStats0.numMemRefs           23910                       # Number of memory refs (Count)
system.cpu11.executeStats0.numMiscRegReads       128531                       # Number of times the Misc registers were read (Count)
system.cpu11.executeStats0.numVecAluAccesses            0                       # Number of vector alu accesses (Count)
system.cpu11.executeStats0.numDiscardedOps            0                       # Number of ops (including micro ops) which were discarded before commit (Count)
system.cpu11.fetchStats0.numInsts              140434                       # Number of instructions fetched (thread level) (Count)
system.cpu11.fetchStats0.numOps                270186                       # Number of ops (including micro ops) fetched (thread level) (Count)
system.cpu11.fetchStats0.fetchRate           0.023268                       # Number of inst fetches per cycle ((Count/Cycle))
system.cpu11.fetchStats0.numBranches            52203                       # Number of branches fetched (Count)
system.cpu11.fetchStats0.branchRate          0.008649                       # Number of branch fetches per cycle (Ratio)
system.cpu11.fetchStats0.numFetchSuspends            0                       # Number of times Execute suspended instruction fetching (Count)
system.cpu11.interrupts.clk_domain.clock         8000                       # Clock period in ticks (Tick)
system.cpu11.mmu.dtb.rdAccesses                 12021                       # TLB accesses on read requests (Count)
system.cpu11.mmu.dtb.wrAccesses                 11893                       # TLB accesses on write requests (Count)
system.cpu11.mmu.dtb.rdMisses                      17                       # TLB misses on read requests (Count)
system.cpu11.mmu.dtb.wrMisses                       9                       # TLB misses on write requests (Count)
system.cpu11.mmu.dtb.walker.power_state.pwrStateResidencyTicks::UNDEFINED   3018342000                       # Cumulative time (in ticks) in various power states (Tick)
system.cpu11.mmu.itb.rdAccesses                     0                       # TLB accesses on read requests (Count)
system.cpu11.mmu.itb.wrAccesses                203894                       # TLB accesses on write requests (Count)
system.cpu11.mmu.itb.rdMisses                       0                       # TLB misses on read requests (Count)
system.cpu11.mmu.itb.wrMisses                      46                       # TLB misses on write requests (Count)
system.cpu11.mmu.itb.walker.power_state.pwrStateResidencyTicks::UNDEFINED   3018342000                       # Cumulative time (in ticks) in various power states (Tick)
system.cpu11.power_state.pwrStateResidencyTicks::ON   3018342000                       # Cumulative time (in ticks) in various power states (Tick)
system.cpu11.thread_0.numInsts                      0                       # Number of Instructions committed (Count)
system.cpu11.thread_0.numOps                        0                       # Number of Ops committed (Count)
system.cpu11.thread_0.numMemRefs                    0                       # Number of Memory References (Count)
system.cpu11.workload.numSyscalls                  15                       # Number of system calls (Count)
system.cpu12.numCycles                        6034739                       # Number of cpu cycles simulated (Cycle)
system.cpu12.cpi                            42.937210                       # CPI: cycles per instruction (core level) ((Cycle/Count))
system.cpu12.ipc                             0.023290                       # IPC: instructions per cycle (core level) ((Count/Cycle))
system.cpu12.numWorkItemsStarted                    0                       # Number of work items this cpu started (Count)
system.cpu12.numWorkItemsCompleted                  0                       # Number of work items this cpu completed (Count)
system.cpu12.commitStats0.numInsts             140548                       # Number of instructions committed (thread level) (Count)
[...]
system.ruby.network.routers7.port_buffers7.m_stall_time       786500                       # Total number of ticks messages were stalled in this buffer (Tick)
system.ruby.network.routers7.port_buffers7.m_avg_stall_time    37.109559                       # Average stall ticks per message ((Tick/Count))
system.ruby.network.routers7.port_buffers9.m_msg_count        20123                       # Number of messages passed the buffer (Count)
system.ruby.network.routers7.port_buffers9.m_buf_msgs     0.003333                       # Average number of messages in buffer ((Count/Tick))
system.ruby.network.routers7.power_state.pwrStateResidencyTicks::UNDEFINED   3018342000                       # Cumulative time (in ticks) in various power states (Tick)
system.ruby.network.routers7.throttle00.acc_link_utilization 104302.500000                       # Accumulated link utilization system.ruby.network.ext_links07 (Count)
system.ruby.network.routers7.throttle00.link_utilization     1.727811                       # Average link utilization (Ratio)
system.ruby.network.routers7.throttle00.total_msg_count        41317                       # Total number of messages forwarded by this switch (Count)
system.ruby.network.routers7.throttle00.total_msg_bytes      1668840                       # Total number of bytes forwarded by this switch (Byte)
system.ruby.network.routers7.throttle00.total_data_msg_bytes      1338304                       # Total number of data bytes forwarded by this switch (Byte)
system.ruby.network.routers7.throttle00.total_msg_wait_time            0                       # Total time spend forwarding messages (Tick)
system.ruby.network.routers7.throttle00.total_stall_cy            0                       # Total time spent blocked on any output link (Cycle)
system.ruby.network.routers7.throttle00.total_bw_sat_cy        83644                       # Total time bandwidth was saturated on any output link (Cycle)
system.ruby.network.routers7.throttle00.avg_msg_wait_time            0                       # Average time a message took to be forwarded (Ratio)
system.ruby.network.routers7.throttle00.avg_bandwidth         0.51                       # Average bandwidth (GB/s) (Ratio)
system.ruby.network.routers7.throttle00.avg_useful_bandwidth         0.41                       # Average useful (only data) bandwidth (GB/s) (Ratio)
system.ruby.network.routers7.throttle00.msg_count.Response_Data::4        20911                       (Unspecified)
system.ruby.network.routers7.throttle00.msg_bytes.Response_Data::4      1505592                       (Unspecified)
system.ruby.network.routers7.throttle00.msg_count.Writeback_Control::3        20406                       (Unspecified)
system.ruby.network.routers7.throttle00.msg_bytes.Writeback_Control::3       163248                       (Unspecified)
system.ruby.network.routers7.throttle01.acc_link_utilization 102282.500000                       # Accumulated link utilization system.ruby.network.int_links07 (Count)
system.ruby.network.routers7.throttle01.link_utilization     1.694349                       # Average link utilization (Ratio)
system.ruby.network.routers7.throttle01.total_msg_count        41317                       # Total number of messages forwarded by this switch (Count)
system.ruby.network.routers7.throttle01.total_msg_bytes      1636520                       # Total number of bytes forwarded by this switch (Byte)
system.ruby.network.routers7.throttle01.total_data_msg_bytes      1305984                       # Total number of data bytes forwarded by this switch (Byte)
system.ruby.network.routers7.throttle01.total_msg_wait_time       786500                       # Total time spend forwarding messages (Tick)
system.ruby.network.routers7.throttle01.total_stall_cy            0                       # Total time spent blocked on any output link (Cycle)
system.ruby.network.routers7.throttle01.total_bw_sat_cy        81627                       # Total time bandwidth was saturated on any output link (Cycle)
system.ruby.network.routers7.throttle01.avg_msg_wait_time    19.035748                       # Average time a message took to be forwarded (Ratio)
system.ruby.network.routers7.throttle01.avg_bandwidth         0.50                       # Average bandwidth (GB/s) (Ratio)
system.ruby.network.routers7.throttle01.avg_useful_bandwidth         0.40                       # Average useful (only data) bandwidth (GB/s) (Ratio)
system.ruby.network.routers7.throttle01.msg_count.Control::2        20911                       (Unspecified)
system.ruby.network.routers7.throttle01.msg_bytes.Control::2       167288                       (Unspecified)
system.ruby.network.routers7.throttle01.msg_count.Data::2          283                       (Unspecified)
system.ruby.network.routers7.throttle01.msg_bytes.Data::2        20376                       (Unspecified)
system.ruby.network.routers7.throttle01.msg_count.Response_Data::4        20123                       (Unspecified)
system.ruby.network.routers7.throttle01.msg_bytes.Response_Data::4      1448856                       (Unspecified)
system.ruby.network.routers8.percent_links_utilized     1.710956                       (Unspecified)
system.ruby.network.routers8.msg_count.Control::2        20909                       (Unspecified)
system.ruby.network.routers8.msg_bytes.Control::2       167272                       (Unspecified)
system.ruby.network.routers8.msg_count.Data::2          283                       (Unspecified)
system.ruby.network.routers8.msg_bytes.Data::2        20376                       (Unspecified)
system.ruby.network.routers8.msg_count.Response_Data::4        41031                       (Unspecified)
system.ruby.network.routers8.msg_bytes.Response_Data::4      2954232                       (Unspecified)
system.ruby.network.routers8.msg_count.Writeback_Control::3        20405                       (Unspecified)
system.ruby.network.routers8.msg_bytes.Writeback_Control::3       163240                       (Unspecified)
system.ruby.network.routers8.port_buffers3.m_msg_count        20405                       # Number of messages passed the buffer (Count)
system.ruby.network.routers8.port_buffers3.m_buf_msgs     0.003380                       # Average number of messages in buffer ((Count/Tick))
system.ruby.network.routers8.port_buffers4.m_msg_count        20909                       # Number of messages passed the buffer (Count)
system.ruby.network.routers8.port_buffers4.m_buf_msgs     0.003464                       # Average number of messages in buffer ((Count/Tick))
system.ruby.network.routers8.port_buffers7.m_msg_count        21192                       # Number of messages passed the buffer (Count)
system.ruby.network.routers8.port_buffers7.m_buf_msgs     0.003770                       # Average number of messages in buffer ((Count/Tick))
system.ruby.network.routers8.port_buffers7.m_stall_time       784500                       # Total number of ticks messages were stalled in this buffer (Tick)
system.ruby.network.routers8.port_buffers7.m_avg_stall_time    37.018686                       # Average stall ticks per message ((Tick/Count))
system.ruby.network.routers8.port_buffers9.m_msg_count        20122                       # Number of messages passed the buffer (Count)
system.ruby.network.routers8.port_buffers9.m_buf_msgs     0.003333                       # Average number of messages in buffer ((Count/Tick))
system.ruby.network.routers8.power_state.pwrStateResidencyTicks::UNDEFINED   3018342000                       # Cumulative time (in ticks) in various power states (Tick)
system.ruby.network.routers8.throttle00.acc_link_utilization       104293                       # Accumulated link utilization system.ruby.network.ext_links08 (Count)
system.ruby.network.routers8.throttle00.link_utilization     1.727654                       # Average link utilization (Ratio)
system.ruby.network.routers8.throttle00.total_msg_count        41314                       # Total number of messages forwarded by this switch (Count)
system.ruby.network.routers8.throttle00.total_msg_bytes      1668688                       # Total number of bytes forwarded by this switch (Byte)
system.ruby.network.routers8.throttle00.total_data_msg_bytes      1338176                       # Total number of data bytes forwarded by this switch (Byte)
system.ruby.network.routers8.throttle00.total_msg_wait_time            0                       # Total time spend forwarding messages (Tick)
system.ruby.network.routers8.throttle00.total_stall_cy            0                       # Total time spent blocked on any output link (Cycle)
system.ruby.network.routers8.throttle00.total_bw_sat_cy        83636                       # Total time bandwidth was saturated on any output link (Cycle)
system.ruby.network.routers8.throttle00.avg_msg_wait_time            0                       # Average time a message took to be forwarded (Ratio)
system.ruby.network.routers8.throttle00.avg_bandwidth         0.51                       # Average bandwidth (GB/s) (Ratio)
system.ruby.network.routers8.throttle00.avg_useful_bandwidth         0.41                       # Average useful (only data) bandwidth (GB/s) (Ratio)
system.ruby.network.routers8.throttle00.msg_count.Response_Data::4        20909                       (Unspecified)
system.ruby.network.routers8.throttle00.msg_bytes.Response_Data::4      1505448                       (Unspecified)
system.ruby.network.routers8.throttle00.msg_count.Writeback_Control::3        20405                       (Unspecified)
system.ruby.network.routers8.throttle00.msg_bytes.Writeback_Control::3       163240                       (Unspecified)
system.ruby.network.routers8.throttle01.acc_link_utilization       102277                       # Accumulated link utilization system.ruby.network.int_links08 (Count)
system.ruby.network.routers8.throttle01.link_utilization     1.694258                       # Average link utilization (Ratio)
system.ruby.network.routers8.throttle01.total_msg_count        41314                       # Total number of messages forwarded by this switch (Count)
system.ruby.network.routers8.throttle01.total_msg_bytes      1636432                       # Total number of bytes forwarded by this switch (Byte)
system.ruby.network.routers8.throttle01.total_data_msg_bytes      1305920                       # Total number of data bytes forwarded by this switch (Byte)
system.ruby.network.routers8.throttle01.total_msg_wait_time       784500                       # Total time spend forwarding messages (Tick)
system.ruby.network.routers8.throttle01.total_stall_cy            0                       # Total time spent blocked on any output link (Cycle)
system.ruby.network.routers8.throttle01.total_bw_sat_cy        81623                       # Total time bandwidth was saturated on any output link (Cycle)
system.ruby.network.routers8.throttle01.avg_msg_wait_time    18.988721                       # Average time a message took to be forwarded (Ratio)
system.ruby.network.routers8.throttle01.avg_bandwidth         0.50                       # Average bandwidth (GB/s) (Ratio)
system.ruby.network.routers8.throttle01.avg_useful_bandwidth         0.40                       # Average useful (only data) bandwidth (GB/s) (Ratio)
system.ruby.network.routers8.throttle01.msg_count.Control::2        20909                       (Unspecified)
system.ruby.network.routers8.throttle01.msg_bytes.Control::2       167272                       (Unspecified)
system.ruby.network.routers8.throttle01.msg_count.Data::2          283                       (Unspecified)
system.ruby.network.routers8.throttle01.msg_bytes.Data::2        20376                       (Unspecified)
system.ruby.network.routers8.throttle01.msg_count.Response_Data::4        20122                       (Unspecified)
system.ruby.network.routers8.throttle01.msg_bytes.Response_Data::4      1448784                       (Unspecified)
system.ruby.network.routers9.percent_links_utilized     1.713234                       (Unspecified)
system.ruby.network.routers9.msg_count.Control::2        20937                       (Unspecified)
system.ruby.network.routers9.msg_bytes.Control::2       167496                       (Unspecified)
system.ruby.network.routers9.msg_count.Data::2          283                       (Unspecified)
system.ruby.network.routers9.msg_bytes.Data::2        20376                       (Unspecified)
system.ruby.network.routers9.msg_count.Response_Data::4        41086                       (Unspecified)
system.ruby.network.routers9.msg_bytes.Response_Data::4      2958192                       (Unspecified)
system.ruby.network.routers9.msg_count.Writeback_Control::3        20432                       (Unspecified)
system.ruby.network.routers9.msg_bytes.Writeback_Control::3       163456                       (Unspecified)
system.ruby.network.routers9.port_buffers3.m_msg_count        20432                       # Number of messages passed the buffer (Count)
system.ruby.network.routers9.port_buffers3.m_buf_msgs     0.003385                       # Average number of messages in buffer ((Count/Tick))
system.ruby.network.routers9.port_buffers4.m_msg_count        20937                       # Number of messages passed the buffer (Count)
system.ruby.network.routers9.port_buffers4.m_buf_msgs     0.003468                       # Average number of messages in buffer ((Count/Tick))
system.ruby.network.routers9.port_buffers7.m_msg_count        21220                       # Number of messages passed the buffer (Count)
system.ruby.network.routers9.port_buffers7.m_buf_msgs     0.003793                       # Average number of messages in buffer ((Count/Tick))
system.ruby.network.routers9.port_buffers7.m_stall_time       838000                       # Total number of ticks messages were stalled in this buffer (Tick)
system.ruby.network.routers9.port_buffers7.m_avg_stall_time    39.491046                       # Average stall ticks per message ((Tick/Count))
system.ruby.network.routers9.port_buffers9.m_msg_count        20149                       # Number of messages passed the buffer (Count)
system.ruby.network.routers9.port_buffers9.m_buf_msgs     0.003338                       # Average number of messages in buffer ((Count/Tick))
system.ruby.network.routers9.port_buffers9.m_stall_time          500                       # Total number of ticks messages were stalled in this buffer (Tick)
system.ruby.network.routers9.port_buffers9.m_avg_stall_time     0.024815                       # Average stall ticks per message ((Tick/Count))
system.ruby.network.routers9.power_state.pwrStateResidencyTicks::UNDEFINED   3018342000                       # Cumulative time (in ticks) in various power states (Tick)
system.ruby.network.routers9.throttle00.acc_link_utilization 104432.500000                       # Accumulated link utilization system.ruby.network.ext_links09 (Count)
system.ruby.network.routers9.throttle00.link_utilization     1.729965                       # Average link utilization (Ratio)
system.ruby.network.routers9.throttle00.total_msg_count        41369                       # Total number of messages forwarded by this switch (Count)
system.ruby.network.routers9.throttle00.total_msg_bytes      1670920                       # Total number of bytes forwarded by this switch (Byte)
system.ruby.network.routers9.throttle00.total_data_msg_bytes      1339968                       # Total number of data bytes forwarded by this switch (Byte)
system.ruby.network.routers9.throttle00.total_msg_wait_time            0                       # Total time spend forwarding messages (Tick)
system.ruby.network.routers9.throttle00.total_stall_cy            0                       # Total time spent blocked on any output link (Cycle)
system.ruby.network.routers9.throttle00.total_bw_sat_cy        83748                       # Total time bandwidth was saturated on any output link (Cycle)
system.ruby.network.routers9.throttle00.avg_msg_wait_time            0                       # Average time a message took to be forwarded (Ratio)
system.ruby.network.routers9.throttle00.avg_bandwidth         0.52                       # Average bandwidth (GB/s) (Ratio)
system.ruby.network.routers9.throttle00.avg_useful_bandwidth         0.41                       # Average useful (only data) bandwidth (GB/s) (Ratio)
system.ruby.network.routers9.throttle00.msg_count.Response_Data::4        20937                       (Unspecified)
system.ruby.network.routers9.throttle00.msg_bytes.Response_Data::4      1507464                       (Unspecified)
system.ruby.network.routers9.throttle00.msg_count.Writeback_Control::3        20432                       (Unspecified)
system.ruby.network.routers9.throttle00.msg_bytes.Writeback_Control::3       163456                       (Unspecified)
system.ruby.network.routers9.throttle01.acc_link_utilization 102412.500000                       # Accumulated link utilization system.ruby.network.int_links09 (Count)
system.ruby.network.routers9.throttle01.link_utilization     1.696503                       # Average link utilization (Ratio)
system.ruby.network.routers9.throttle01.total_msg_count        41369                       # Total number of messages forwarded by this switch (Count)
system.ruby.network.routers9.throttle01.total_msg_bytes      1638600                       # Total number of bytes forwarded by this switch (Byte)
system.ruby.network.routers9.throttle01.total_data_msg_bytes      1307648                       # Total number of data bytes forwarded by this switch (Byte)
system.ruby.network.routers9.throttle01.total_msg_wait_time       838500                       # Total time spend forwarding messages (Tick)
system.ruby.network.routers9.throttle01.total_stall_cy            0                       # Total time spent blocked on any output link (Cycle)
system.ruby.network.routers9.throttle01.total_bw_sat_cy        81731                       # Total time bandwidth was saturated on any output link (Cycle)
system.ruby.network.routers9.throttle01.avg_msg_wait_time    20.268800                       # Average time a message took to be forwarded (Ratio)
system.ruby.network.routers9.throttle01.avg_bandwidth         0.51                       # Average bandwidth (GB/s) (Ratio)
system.ruby.network.routers9.throttle01.avg_useful_bandwidth         0.40                       # Average useful (only data) bandwidth (GB/s) (Ratio)
system.ruby.network.routers9.throttle01.msg_count.Control::2        20937                       (Unspecified)
system.ruby.network.routers9.throttle01.msg_bytes.Control::2       167496                       (Unspecified)
system.ruby.network.routers9.throttle01.msg_count.Data::2          283                       (Unspecified)
system.ruby.network.routers9.throttle01.msg_bytes.Data::2        20376                       (Unspecified)
system.ruby.network.routers9.throttle01.msg_count.Response_Data::4        20149                       (Unspecified)
system.ruby.network.routers9.throttle01.msg_bytes.Response_Data::4      1450728                       (Unspecified)
system.ruby.power_state.pwrStateResidencyTicks::UNDEFINED   3018342000                       # Cumulative time (in ticks) in various power states (Tick)
system.sys_port_proxy.power_state.pwrStateResidencyTicks::UNDEFINED   3018342000                       # Cumulative time (in ticks) in various power states (Tick)
system.voltage_domain.voltage                       1                       # Voltage in Volts (Volt)
system.workload.inst.arm                            0                       # number of arm instructions executed (Count)
system.workload.inst.quiesce                        0                       # number of quiesce instructions executed (Count)

---------- End Simulation Statistics   ----------
