
---------- Begin Simulation Statistics ----------
simSeconds                                   0.001734                       # Number of seconds simulated (Second)
simTicks                                   1733786000                       # Number of ticks simulated (Tick)
finalTick                                  1733786000                       # Number of ticks from beginning of simulation (restored from checkpoints and never reset) (Tick)
simFreq                                  1000000000000                       # The number of ticks per simulated second ((Tick/Second))
hostSeconds                                      3.22                       # Real time elapsed on the host (Second)
hostTickRate                                539060601                       # The number of ticks simulated per host second (ticks/s) ((Tick/Second))
hostMemory                                    2644048                       # Number of bytes of host memory used (Byte)
simInsts                                      1156508                       # Number of instructions simulated (Count)
simOps                                        2237932                       # Number of ops (including micro ops) simulated (Count)
hostInstRate                                   359566                       # Simulator instruction rate (inst/s) ((Count/Second))
hostOpRate                                     695788                       # Simulator op (including micro ops) rate (op/s) ((Count/Second))
system.clk_domain.clock                          1000                       # Clock period in ticks (Tick)
system.cpu0.numCycles                         3467572                       # Number of cpu cycles simulated (Cycle)
system.cpu0.cpi                             24.496115                       # CPI: cycles per instruction (core level) ((Cycle/Count))
system.cpu0.ipc                              0.040823                       # IPC: instructions per cycle (core level) ((Count/Cycle))
system.cpu0.numWorkItemsStarted                     0                       # Number of work items this cpu started (Count)
system.cpu0.numWorkItemsCompleted                   0                       # Number of work items this cpu completed (Count)
system.cpu0.commitStats0.numInsts              141556                       # Number of instructions committed (thread level) (Count)
system.cpu0.commitStats0.numOps                271892                       # Number of ops (including micro ops) committed (thread level) (Count)
system.cpu0.commitStats0.numInstsNotNOP             0                       # Number of instructions committed excluding NOPs or prefetches (Count)
system.cpu0.commitStats0.numOpsNotNOP               0                       # Number of Ops (including micro ops) Simulated (Count)
system.cpu0.commitStats0.cpi                24.496115                       # CPI: cycles per instruction (thread level) ((Cycle/Count))
system.cpu0.commitStats0.ipc                 0.040823                       # IPC: instructions per cycle (thread level) ((Count/Cycle))
system.cpu0.commitStats0.numMemRefs                 0                       # Number of memory references committed (Count)
system.cpu0.commitStats0.numFpInsts              1354                       # Number of float instructions (Count)
system.cpu0.commitStats0.numIntInsts           271031                       # Number of integer instructions (Count)
system.cpu0.commitStats0.numLoadInsts           11949                       # Number of load instructions (Count)
system.cpu0.commitStats0.numStoreInsts          12550                       # Number of store instructions (Count)
system.cpu0.commitStats0.numVecInsts                0                       # Number of vector instructions (Count)
system.cpu0.commitStats0.committedInstType::No_OpClass          209      0.08%      0.08% # Class of committed instruction. (Count)
system.cpu0.commitStats0.committedInstType::IntAlu       246598     90.70%     90.77% # Class of committed instruction. (Count)
system.cpu0.commitStats0.committedInstType::IntMult           12      0.00%     90.78% # Class of committed instruction. (Count)
system.cpu0.commitStats0.committedInstType::IntDiv           21      0.01%     90.79% # Class of committed instruction. (Count)
system.cpu0.commitStats0.committedInstType::FloatAdd          172      0.06%     90.85% # Class of committed instruction. (Count)
system.cpu0.commitStats0.committedInstType::FloatCmp            0      0.00%     90.85% # Class of committed instruction. (Count)
system.cpu0.commitStats0.committedInstType::FloatCvt            0      0.00%     90.85% # Class of committed instruction. (Count)
system.cpu0.commitStats0.committedInstType::FloatMult            0      0.00%     90.85% # Class of committed instruction. (Count)
system.cpu0.commitStats0.committedInstType::FloatMultAcc            0      0.00%     90.85% # Class of committed instruction. (Count)
system.cpu0.commitStats0.committedInstType::FloatDiv            0      0.00%     90.85% # Class of committed instruction. (Count)
system.cpu0.commitStats0.committedInstType::FloatMisc            0      0.00%     90.85% # Class of committed instruction. (Count)
system.cpu0.commitStats0.committedInstType::FloatSqrt            0      0.00%     90.85% # Class of committed instruction. (Count)
system.cpu0.commitStats0.committedInstType::SimdAdd            8      0.00%     90.85% # Class of committed instruction. (Count)
system.cpu0.commitStats0.committedInstType::SimdAddAcc            0      0.00%     90.85% # Class of committed instruction. (Count)
system.cpu0.commitStats0.committedInstType::SimdAlu           96      0.04%     90.89% # Class of committed instruction. (Count)
system.cpu0.commitStats0.committedInstType::SimdCmp            0      0.00%     90.89% # Class of committed instruction. (Count)
system.cpu0.commitStats0.committedInstType::SimdCvt           48      0.02%     90.91% # Class of committed instruction. (Count)
system.cpu0.commitStats0.committedInstType::SimdMisc          229      0.08%     90.99% # Class of committed instruction. (Count)
system.cpu0.commitStats0.committedInstType::SimdMult            0      0.00%     90.99% # Class of committed instruction. (Count)
system.cpu0.commitStats0.committedInstType::SimdMultAcc            0      0.00%     90.99% # Class of committed instruction. (Count)
system.cpu0.commitStats0.committedInstType::SimdMatMultAcc            0      0.00%     90.99% # Class of committed instruction. (Count)
system.cpu0.commitStats0.committedInstType::SimdShift            0      0.00%     90.99% # Class of committed instruction. (Count)
system.cpu0.commitStats0.committedInstType::SimdShiftAcc            0      0.00%     90.99% # Class of committed instruction. (Count)
system.cpu0.commitStats0.committedInstType::SimdDiv            0      0.00%     90.99% # Class of committed instruction. (Count)
system.cpu0.commitStats0.committedInstType::SimdSqrt            0      0.00%     90.99% # Class of committed instruction. (Count)
system.cpu0.commitStats0.committedInstType::SimdFloatAdd            0      0.00%     90.99% # Class of committed instruction. (Count)
system.cpu0.commitStats0.committedInstType::SimdFloatAlu            0      0.00%     90.99% # Class of committed instruction. (Count)
system.cpu0.commitStats0.committedInstType::SimdFloatCmp            0      0.00%     90.99% # Class of committed instruction. (Count)
system.cpu0.commitStats0.committedInstType::SimdFloatCvt            0      0.00%     90.99% # Class of committed instruction. (Count)
system.cpu0.commitStats0.committedInstType::SimdFloatDiv            0      0.00%     90.99% # Class of committed instruction. (Count)
system.cpu0.commitStats0.committedInstType::SimdFloatMisc            0      0.00%     90.99% # Class of committed instruction. (Count)
system.cpu0.commitStats0.committedInstType::SimdFloatMult            0      0.00%     90.99% # Class of committed instruction. (Count)
system.cpu0.commitStats0.committedInstType::SimdFloatMultAcc            0      0.00%     90.99% # Class of committed instruction. (Count)
system.cpu0.commitStats0.committedInstType::SimdFloatMatMultAcc            0      0.00%     90.99% # Class of committed instruction. (Count)
system.cpu0.commitStats0.committedInstType::SimdFloatSqrt            0      0.00%     90.99% # Class of committed instruction. (Count)
system.cpu0.commitStats0.committedInstType::SimdReduceAdd            0      0.00%     90.99% # Class of committed instruction. (Count)
system.cpu0.commitStats0.committedInstType::SimdReduceAlu            0      0.00%     90.99% # Class of committed instruction. (Count)
system.cpu0.commitStats0.committedInstType::SimdReduceCmp            0      0.00%     90.99% # Class of committed instruction. (Count)
system.cpu0.commitStats0.committedInstType::SimdFloatReduceAdd            0      0.00%     90.99% # Class of committed instruction. (Count)
system.cpu0.commitStats0.committedInstType::SimdFloatReduceCmp            0      0.00%     90.99% # Class of committed instruction. (Count)
system.cpu0.commitStats0.committedInstType::SimdAes            0      0.00%     90.99% # Class of committed instruction. (Count)
system.cpu0.commitStats0.committedInstType::SimdAesMix            0      0.00%     90.99% # Class of committed instruction. (Count)
system.cpu0.commitStats0.committedInstType::SimdSha1Hash            0      0.00%     90.99% # Class of committed instruction. (Count)
system.cpu0.commitStats0.committedInstType::SimdSha1Hash2            0      0.00%     90.99% # Class of committed instruction. (Count)
system.cpu0.commitStats0.committedInstType::SimdSha256Hash            0      0.00%     90.99% # Class of committed instruction. (Count)
system.cpu0.commitStats0.committedInstType::SimdSha256Hash2            0      0.00%     90.99% # Class of committed instruction. (Count)
system.cpu0.commitStats0.committedInstType::SimdShaSigma2            0      0.00%     90.99% # Class of committed instruction. (Count)
system.cpu0.commitStats0.committedInstType::SimdShaSigma3            0      0.00%     90.99% # Class of committed instruction. (Count)
system.cpu0.commitStats0.committedInstType::SimdPredAlu            0      0.00%     90.99% # Class of committed instruction. (Count)
system.cpu0.commitStats0.committedInstType::Matrix            0      0.00%     90.99% # Class of committed instruction. (Count)
system.cpu0.commitStats0.committedInstType::MatrixMov            0      0.00%     90.99% # Class of committed instruction. (Count)
system.cpu0.commitStats0.committedInstType::MatrixOP            0      0.00%     90.99% # Class of committed instruction. (Count)
system.cpu0.commitStats0.committedInstType::MemRead        11828      4.35%     95.34% # Class of committed instruction. (Count)
system.cpu0.commitStats0.committedInstType::MemWrite        12027      4.42%     99.76% # Class of committed instruction. (Count)
system.cpu0.commitStats0.committedInstType::FloatMemRead          121      0.04%     99.81% # Class of committed instruction. (Count)
system.cpu0.commitStats0.committedInstType::FloatMemWrite          523      0.19%    100.00% # Class of committed instruction. (Count)
system.cpu0.commitStats0.committedInstType::IprAccess            0      0.00%    100.00% # Class of committed instruction. (Count)
system.cpu0.commitStats0.committedInstType::InstPrefetch            0      0.00%    100.00% # Class of committed instruction. (Count)
system.cpu0.commitStats0.committedInstType::SimdUnitStrideLoad            0      0.00%    100.00% # Class of committed instruction. (Count)
system.cpu0.commitStats0.committedInstType::SimdUnitStrideStore            0      0.00%    100.00% # Class of committed instruction. (Count)
system.cpu0.commitStats0.committedInstType::SimdUnitStrideMaskLoad            0      0.00%    100.00% # Class of committed instruction. (Count)
system.cpu0.commitStats0.committedInstType::SimdUnitStrideMaskStore            0      0.00%    100.00% # Class of committed instruction. (Count)
system.cpu0.commitStats0.committedInstType::SimdStridedLoad            0      0.00%    100.00% # Class of committed instruction. (Count)
system.cpu0.commitStats0.committedInstType::SimdStridedStore            0      0.00%    100.00% # Class of committed instruction. (Count)
system.cpu0.commitStats0.committedInstType::SimdIndexedLoad            0      0.00%    100.00% # Class of committed instruction. (Count)
system.cpu0.commitStats0.committedInstType::SimdIndexedStore            0      0.00%    100.00% # Class of committed instruction. (Count)
system.cpu0.commitStats0.committedInstType::SimdWholeRegisterLoad            0      0.00%    100.00% # Class of committed instruction. (Count)
system.cpu0.commitStats0.committedInstType::SimdWholeRegisterStore            0      0.00%    100.00% # Class of committed instruction. (Count)
system.cpu0.commitStats0.committedInstType::SimdUnitStrideFaultOnlyFirstLoad            0      0.00%    100.00% # Class of committed instruction. (Count)
system.cpu0.commitStats0.committedInstType::SimdUnitStrideSegmentedLoad            0      0.00%    100.00% # Class of committed instruction. (Count)
system.cpu0.commitStats0.committedInstType::SimdUnitStrideSegmentedStore            0      0.00%    100.00% # Class of committed instruction. (Count)
system.cpu0.commitStats0.committedInstType::SimdUnitStrideSegmentedFaultOnlyFirstLoad            0      0.00%    100.00% # Class of committed instruction. (Count)
system.cpu0.commitStats0.committedInstType::SimdStrideSegmentedLoad            0      0.00%    100.00% # Class of committed instruction. (Count)
system.cpu0.commitStats0.committedInstType::SimdStrideSegmentedStore            0      0.00%    100.00% # Class of committed instruction. (Count)
system.cpu0.commitStats0.committedInstType::SimdExt            0      0.00%    100.00% # Class of committed instruction. (Count)
system.cpu0.commitStats0.committedInstType::SimdFloatExt            0      0.00%    100.00% # Class of committed instruction. (Count)
system.cpu0.commitStats0.committedInstType::SimdConfig            0      0.00%    100.00% # Class of committed instruction. (Count)
system.cpu0.commitStats0.committedInstType::total       271892                       # Class of committed instruction. (Count)
system.cpu0.commitStats0.committedControl::IsControl        52165                       # Class of control type instructions committed (Count)
system.cpu0.commitStats0.committedControl::IsDirectControl        51917                       # Class of control type instructions committed (Count)
system.cpu0.commitStats0.committedControl::IsIndirectControl          248                       # Class of control type instructions committed (Count)
system.cpu0.commitStats0.committedControl::IsCondControl        41628                       # Class of control type instructions committed (Count)
system.cpu0.commitStats0.committedControl::IsUncondControl        10537                       # Class of control type instructions committed (Count)
system.cpu0.commitStats0.committedControl::IsCall          180                       # Class of control type instructions committed (Count)
system.cpu0.commitStats0.committedControl::IsReturn          175                       # Class of control type instructions committed (Count)
system.cpu0.exec_context.thread_0.numMatAluAccesses            0                       # Number of matrix alu accesses (Count)
system.cpu0.exec_context.thread_0.numCallsReturns          355                       # Number of times a function call or return occured (Count)
system.cpu0.exec_context.thread_0.numMatInsts            0                       # Number of matrix instructions (Count)
system.cpu0.exec_context.thread_0.numIdleCycles     0.002000                       # Number of idle cycles (Cycle)
system.cpu0.exec_context.thread_0.numBusyCycles 3467571.998000                       # Number of busy cycles (Cycle)
system.cpu0.exec_context.thread_0.notIdleFraction     1.000000                       # Percentage of non-idle cycles (Ratio)
system.cpu0.exec_context.thread_0.idleFraction     0.000000                       # Percentage of idle cycles (Ratio)
system.cpu0.executeStats0.numInsts                  0                       # Number of executed instructions (Count)
system.cpu0.executeStats0.numNop                    0                       # Number of nop insts executed (Count)
system.cpu0.executeStats0.numBranches               0                       # Number of branches executed (Count)
system.cpu0.executeStats0.numLoadInsts              0                       # Number of load instructions executed (Count)
system.cpu0.executeStats0.numStoreInsts         24499                       # Number of stores executed (Count)
system.cpu0.executeStats0.instRate                  0                       # Inst execution rate ((Count/Cycle))
system.cpu0.executeStats0.numFpAluAccesses         1354                       # Number of float alu accesses (Count)
system.cpu0.executeStats0.numFpRegReads          1462                       # Number of times the floating registers were read (Count)
system.cpu0.executeStats0.numFpRegWrites          785                       # Number of times the floating registers were written (Count)
system.cpu0.executeStats0.numIntAluAccesses       271031                       # Number of integer alu accesses (Count)
system.cpu0.executeStats0.numIntRegReads       283630                       # Number of times the integer registers were read (Count)
system.cpu0.executeStats0.numIntRegWrites       164718                       # Number of times the integer registers were written (Count)
system.cpu0.executeStats0.numMemRefs            24499                       # Number of memory refs (Count)
system.cpu0.executeStats0.numMiscRegReads       129044                       # Number of times the Misc registers were read (Count)
system.cpu0.executeStats0.numVecAluAccesses            0                       # Number of vector alu accesses (Count)
system.cpu0.executeStats0.numDiscardedOps            0                       # Number of ops (including micro ops) which were discarded before commit (Count)
system.cpu0.fetchStats0.numInsts               141556                       # Number of instructions fetched (thread level) (Count)
system.cpu0.fetchStats0.numOps                 271892                       # Number of ops (including micro ops) fetched (thread level) (Count)
system.cpu0.fetchStats0.fetchRate            0.040823                       # Number of inst fetches per cycle ((Count/Cycle))
system.cpu0.fetchStats0.numBranches             52165                       # Number of branches fetched (Count)
system.cpu0.fetchStats0.branchRate           0.015044                       # Number of branch fetches per cycle (Ratio)
system.cpu0.fetchStats0.numFetchSuspends            0                       # Number of times Execute suspended instruction fetching (Count)
system.cpu0.interrupts.clk_domain.clock          8000                       # Clock period in ticks (Tick)
system.cpu0.mmu.dtb.rdAccesses                  11953                       # TLB accesses on read requests (Count)
system.cpu0.mmu.dtb.wrAccesses                  12550                       # TLB accesses on write requests (Count)
system.cpu0.mmu.dtb.rdMisses                       15                       # TLB misses on read requests (Count)
system.cpu0.mmu.dtb.wrMisses                       11                       # TLB misses on write requests (Count)
system.cpu0.mmu.dtb.walker.power_state.pwrStateResidencyTicks::UNDEFINED   1733786000                       # Cumulative time (in ticks) in various power states (Tick)
system.cpu0.mmu.itb.rdAccesses                      0                       # TLB accesses on read requests (Count)
system.cpu0.mmu.itb.wrAccesses                 205959                       # TLB accesses on write requests (Count)
system.cpu0.mmu.itb.rdMisses                        0                       # TLB misses on read requests (Count)
system.cpu0.mmu.itb.wrMisses                       46                       # TLB misses on write requests (Count)
system.cpu0.mmu.itb.walker.power_state.pwrStateResidencyTicks::UNDEFINED   1733786000                       # Cumulative time (in ticks) in various power states (Tick)
system.cpu0.power_state.pwrStateResidencyTicks::ON   1733786000                       # Cumulative time (in ticks) in various power states (Tick)
system.cpu0.thread_0.numInsts                       0                       # Number of Instructions committed (Count)
system.cpu0.thread_0.numOps                         0                       # Number of Ops committed (Count)
system.cpu0.thread_0.numMemRefs                     0                       # Number of Memory References (Count)
system.cpu0.workload.numSyscalls                   15                       # Number of system calls (Count)
system.cpu1.numCycles                         3467282                       # Number of cpu cycles simulated (Cycle)
system.cpu1.cpi                             23.909157                       # CPI: cycles per instruction (core level) ((Cycle/Count))
system.cpu1.ipc                              0.041825                       # IPC: instructions per cycle (core level) ((Count/Cycle))
system.cpu1.numWorkItemsStarted                     0                       # Number of work items this cpu started (Count)
system.cpu1.numWorkItemsCompleted                   0                       # Number of work items this cpu completed (Count)
system.cpu1.commitStats0.numInsts              145019                       # Number of instructions committed (thread level) (Count)
system.cpu1.commitStats0.numOps                280899                       # Number of ops (including micro ops) committed (thread level) (Count)
system.cpu1.commitStats0.numInstsNotNOP             0                       # Number of instructions committed excluding NOPs or prefetches (Count)
system.cpu1.commitStats0.numOpsNotNOP               0                       # Number of Ops (including micro ops) Simulated (Count)
system.cpu1.commitStats0.cpi                23.909157                       # CPI: cycles per instruction (thread level) ((Cycle/Count))
system.cpu1.commitStats0.ipc                 0.041825                       # IPC: instructions per cycle (thread level) ((Count/Cycle))
system.cpu1.commitStats0.numMemRefs                 0                       # Number of memory references committed (Count)
system.cpu1.commitStats0.numFpInsts              1354                       # Number of float instructions (Count)
system.cpu1.commitStats0.numIntInsts           280038                       # Number of integer instructions (Count)
system.cpu1.commitStats0.numLoadInsts           13564                       # Number of load instructions (Count)
system.cpu1.commitStats0.numStoreInsts          11893                       # Number of store instructions (Count)
system.cpu1.commitStats0.numVecInsts                0                       # Number of vector instructions (Count)
system.cpu1.commitStats0.committedInstType::No_OpClass          210      0.07%      0.07% # Class of committed instruction. (Count)
system.cpu1.commitStats0.committedInstType::IntAlu       254646     90.65%     90.73% # Class of committed instruction. (Count)
system.cpu1.commitStats0.committedInstType::IntMult           12      0.00%     90.73% # Class of committed instruction. (Count)
system.cpu1.commitStats0.committedInstType::IntDiv           21      0.01%     90.74% # Class of committed instruction. (Count)
system.cpu1.commitStats0.committedInstType::FloatAdd          172      0.06%     90.80% # Class of committed instruction. (Count)
system.cpu1.commitStats0.committedInstType::FloatCmp            0      0.00%     90.80% # Class of committed instruction. (Count)
system.cpu1.commitStats0.committedInstType::FloatCvt            0      0.00%     90.80% # Class of committed instruction. (Count)
system.cpu1.commitStats0.committedInstType::FloatMult            0      0.00%     90.80% # Class of committed instruction. (Count)
system.cpu1.commitStats0.committedInstType::FloatMultAcc            0      0.00%     90.80% # Class of committed instruction. (Count)
system.cpu1.commitStats0.committedInstType::FloatDiv            0      0.00%     90.80% # Class of committed instruction. (Count)
system.cpu1.commitStats0.committedInstType::FloatMisc            0      0.00%     90.80% # Class of committed instruction. (Count)
system.cpu1.commitStats0.committedInstType::FloatSqrt            0      0.00%     90.80% # Class of committed instruction. (Count)
system.cpu1.commitStats0.committedInstType::SimdAdd            8      0.00%     90.80% # Class of committed instruction. (Count)
system.cpu1.commitStats0.committedInstType::SimdAddAcc            0      0.00%     90.80% # Class of committed instruction. (Count)
system.cpu1.commitStats0.committedInstType::SimdAlu           96      0.03%     90.84% # Class of committed instruction. (Count)
system.cpu1.commitStats0.committedInstType::SimdCmp            0      0.00%     90.84% # Class of committed instruction. (Count)
system.cpu1.commitStats0.committedInstType::SimdCvt           48      0.02%     90.86% # Class of committed instruction. (Count)
system.cpu1.commitStats0.committedInstType::SimdMisc          229      0.08%     90.94% # Class of committed instruction. (Count)
system.cpu1.commitStats0.committedInstType::SimdMult            0      0.00%     90.94% # Class of committed instruction. (Count)
system.cpu1.commitStats0.committedInstType::SimdMultAcc            0      0.00%     90.94% # Class of committed instruction. (Count)
system.cpu1.commitStats0.committedInstType::SimdMatMultAcc            0      0.00%     90.94% # Class of committed instruction. (Count)
system.cpu1.commitStats0.committedInstType::SimdShift            0      0.00%     90.94% # Class of committed instruction. (Count)
system.cpu1.commitStats0.committedInstType::SimdShiftAcc            0      0.00%     90.94% # Class of committed instruction. (Count)
system.cpu1.commitStats0.committedInstType::SimdDiv            0      0.00%     90.94% # Class of committed instruction. (Count)
system.cpu1.commitStats0.committedInstType::SimdSqrt            0      0.00%     90.94% # Class of committed instruction. (Count)
system.cpu1.commitStats0.committedInstType::SimdFloatAdd            0      0.00%     90.94% # Class of committed instruction. (Count)
system.cpu1.commitStats0.committedInstType::SimdFloatAlu            0      0.00%     90.94% # Class of committed instruction. (Count)
system.cpu1.commitStats0.committedInstType::SimdFloatCmp            0      0.00%     90.94% # Class of committed instruction. (Count)
system.cpu1.commitStats0.committedInstType::SimdFloatCvt            0      0.00%     90.94% # Class of committed instruction. (Count)
system.cpu1.commitStats0.committedInstType::SimdFloatDiv            0      0.00%     90.94% # Class of committed instruction. (Count)
system.cpu1.commitStats0.committedInstType::SimdFloatMisc            0      0.00%     90.94% # Class of committed instruction. (Count)
system.cpu1.commitStats0.committedInstType::SimdFloatMult            0      0.00%     90.94% # Class of committed instruction. (Count)
system.cpu1.commitStats0.committedInstType::SimdFloatMultAcc            0      0.00%     90.94% # Class of committed instruction. (Count)
system.cpu1.commitStats0.committedInstType::SimdFloatMatMultAcc            0      0.00%     90.94% # Class of committed instruction. (Count)
system.cpu1.commitStats0.committedInstType::SimdFloatSqrt            0      0.00%     90.94% # Class of committed instruction. (Count)
system.cpu1.commitStats0.committedInstType::SimdReduceAdd            0      0.00%     90.94% # Class of committed instruction. (Count)
system.cpu1.commitStats0.committedInstType::SimdReduceAlu            0      0.00%     90.94% # Class of committed instruction. (Count)
system.cpu1.commitStats0.committedInstType::SimdReduceCmp            0      0.00%     90.94% # Class of committed instruction. (Count)
system.cpu1.commitStats0.committedInstType::SimdFloatReduceAdd            0      0.00%     90.94% # Class of committed instruction. (Count)
system.cpu1.commitStats0.committedInstType::SimdFloatReduceCmp            0      0.00%     90.94% # Class of committed instruction. (Count)
system.cpu1.commitStats0.committedInstType::SimdAes            0      0.00%     90.94% # Class of committed instruction. (Count)
system.cpu1.commitStats0.committedInstType::SimdAesMix            0      0.00%     90.94% # Class of committed instruction. (Count)
system.cpu1.commitStats0.committedInstType::SimdSha1Hash            0      0.00%     90.94% # Class of committed instruction. (Count)
system.cpu1.commitStats0.committedInstType::SimdSha1Hash2            0      0.00%     90.94% # Class of committed instruction. (Count)
system.cpu1.commitStats0.committedInstType::SimdSha256Hash            0      0.00%     90.94% # Class of committed instruction. (Count)
system.cpu1.commitStats0.committedInstType::SimdSha256Hash2            0      0.00%     90.94% # Class of committed instruction. (Count)
system.cpu1.commitStats0.committedInstType::SimdShaSigma2            0      0.00%     90.94% # Class of committed instruction. (Count)
system.cpu1.commitStats0.committedInstType::SimdShaSigma3            0      0.00%     90.94% # Class of committed instruction. (Count)
system.cpu1.commitStats0.committedInstType::SimdPredAlu            0      0.00%     90.94% # Class of committed instruction. (Count)
system.cpu1.commitStats0.committedInstType::Matrix            0      0.00%     90.94% # Class of committed instruction. (Count)
system.cpu1.commitStats0.committedInstType::MatrixMov            0      0.00%     90.94% # Class of committed instruction. (Count)
system.cpu1.commitStats0.committedInstType::MatrixOP            0      0.00%     90.94% # Class of committed instruction. (Count)
system.cpu1.commitStats0.committedInstType::MemRead        13443      4.79%     95.72% # Class of committed instruction. (Count)
system.cpu1.commitStats0.committedInstType::MemWrite        11370      4.05%     99.77% # Class of committed instruction. (Count)
system.cpu1.commitStats0.committedInstType::FloatMemRead          121      0.04%     99.81% # Class of committed instruction. (Count)
system.cpu1.commitStats0.committedInstType::FloatMemWrite          523      0.19%    100.00% # Class of committed instruction. (Count)
system.cpu1.commitStats0.committedInstType::IprAccess            0      0.00%    100.00% # Class of committed instruction. (Count)
system.cpu1.commitStats0.committedInstType::InstPrefetch            0      0.00%    100.00% # Class of committed instruction. (Count)
system.cpu1.commitStats0.committedInstType::SimdUnitStrideLoad            0      0.00%    100.00% # Class of committed instruction. (Count)
system.cpu1.commitStats0.committedInstType::SimdUnitStrideStore            0      0.00%    100.00% # Class of committed instruction. (Count)
system.cpu1.commitStats0.committedInstType::SimdUnitStrideMaskLoad            0      0.00%    100.00% # Class of committed instruction. (Count)
system.cpu1.commitStats0.committedInstType::SimdUnitStrideMaskStore            0      0.00%    100.00% # Class of committed instruction. (Count)
system.cpu1.commitStats0.committedInstType::SimdStridedLoad            0      0.00%    100.00% # Class of committed instruction. (Count)
system.cpu1.commitStats0.committedInstType::SimdStridedStore            0      0.00%    100.00% # Class of committed instruction. (Count)
system.cpu1.commitStats0.committedInstType::SimdIndexedLoad            0      0.00%    100.00% # Class of committed instruction. (Count)
system.cpu1.commitStats0.committedInstType::SimdIndexedStore            0      0.00%    100.00% # Class of committed instruction. (Count)
system.cpu1.commitStats0.committedInstType::SimdWholeRegisterLoad            0      0.00%    100.00% # Class of committed instruction. (Count)
system.cpu1.commitStats0.committedInstType::SimdWholeRegisterStore            0      0.00%    100.00% # Class of committed instruction. (Count)
system.cpu1.commitStats0.committedInstType::SimdUnitStrideFaultOnlyFirstLoad            0      0.00%    100.00% # Class of committed instruction. (Count)
system.cpu1.commitStats0.committedInstType::SimdUnitStrideSegmentedLoad            0      0.00%    100.00% # Class of committed instruction. (Count)
system.cpu1.commitStats0.committedInstType::SimdUnitStrideSegmentedStore            0      0.00%    100.00% # Class of committed instruction. (Count)
system.cpu1.commitStats0.committedInstType::SimdUnitStrideSegmentedFaultOnlyFirstLoad            0      0.00%    100.00% # Class of committed instruction. (Count)
system.cpu1.commitStats0.committedInstType::SimdStrideSegmentedLoad            0      0.00%    100.00% # Class of committed instruction. (Count)
system.cpu1.commitStats0.committedInstType::SimdStrideSegmentedStore            0      0.00%    100.00% # Class of committed instruction. (Count)
system.cpu1.commitStats0.committedInstType::SimdExt            0      0.00%    100.00% # Class of committed instruction. (Count)
system.cpu1.commitStats0.committedInstType::SimdFloatExt            0      0.00%    100.00% # Class of committed instruction. (Count)
system.cpu1.commitStats0.committedInstType::SimdConfig            0      0.00%    100.00% # Class of committed instruction. (Count)
system.cpu1.commitStats0.committedInstType::total       280899                       # Class of committed instruction. (Count)
system.cpu1.commitStats0.committedControl::IsControl        53732                       # Class of control type instructions committed (Count)
system.cpu1.commitStats0.committedControl::IsDirectControl        53484                       # Class of control type instructions committed (Count)
system.cpu1.commitStats0.committedControl::IsIndirectControl          248                       # Class of control type instructions committed (Count)
system.cpu1.commitStats0.committedControl::IsCondControl        43196                       # Class of control type instructions committed (Count)
system.cpu1.commitStats0.committedControl::IsUncondControl        10536                       # Class of control type instructions committed (Count)
system.cpu1.commitStats0.committedControl::IsCall          180                       # Class of control type instructions committed (Count)
system.cpu1.commitStats0.committedControl::IsReturn          175                       # Class of control type instructions committed (Count)
system.cpu1.exec_context.thread_0.numMatAluAccesses            0                       # Number of matrix alu accesses (Count)
system.cpu1.exec_context.thread_0.numCallsReturns          355                       # Number of times a function call or return occured (Count)
system.cpu1.exec_context.thread_0.numMatInsts            0                       # Number of matrix instructions (Count)
system.cpu1.exec_context.thread_0.numIdleCycles   289.977746                       # Number of idle cycles (Cycle)
system.cpu1.exec_context.thread_0.numBusyCycles 3466992.022254                       # Number of busy cycles (Cycle)
system.cpu1.exec_context.thread_0.notIdleFraction     0.999916                       # Percentage of non-idle cycles (Ratio)
system.cpu1.exec_context.thread_0.idleFraction     0.000084                       # Percentage of idle cycles (Ratio)
system.cpu1.executeStats0.numInsts                  0                       # Number of executed instructions (Count)
system.cpu1.executeStats0.numNop                    0                       # Number of nop insts executed (Count)
system.cpu1.executeStats0.numBranches               0                       # Number of branches executed (Count)
system.cpu1.executeStats0.numLoadInsts              0                       # Number of load instructions executed (Count)
system.cpu1.executeStats0.numStoreInsts         25457                       # Number of stores executed (Count)
system.cpu1.executeStats0.instRate                  0                       # Inst execution rate ((Count/Cycle))
system.cpu1.executeStats0.numFpAluAccesses         1354                       # Number of float alu accesses (Count)
system.cpu1.executeStats0.numFpRegReads          1462                       # Number of times the floating registers were read (Count)
system.cpu1.executeStats0.numFpRegWrites          785                       # Number of times the floating registers were written (Count)
system.cpu1.executeStats0.numIntAluAccesses       280038                       # Number of integer alu accesses (Count)
system.cpu1.executeStats0.numIntRegReads       288919                       # Number of times the integer registers were read (Count)
system.cpu1.executeStats0.numIntRegWrites       171248                       # Number of times the integer registers were written (Count)
system.cpu1.executeStats0.numMemRefs            25457                       # Number of memory refs (Count)
system.cpu1.executeStats0.numMiscRegReads       133136                       # Number of times the Misc registers were read (Count)
system.cpu1.executeStats0.numVecAluAccesses            0                       # Number of vector alu accesses (Count)
system.cpu1.executeStats0.numDiscardedOps            0                       # Number of ops (including micro ops) which were discarded before commit (Count)
system.cpu1.fetchStats0.numInsts               145019                       # Number of instructions fetched (thread level) (Count)
system.cpu1.fetchStats0.numOps                 280899                       # Number of ops (including micro ops) fetched (thread level) (Count)
system.cpu1.fetchStats0.fetchRate            0.041825                       # Number of inst fetches per cycle ((Count/Cycle))
system.cpu1.fetchStats0.numBranches             53732                       # Number of branches fetched (Count)
system.cpu1.fetchStats0.branchRate           0.015497                       # Number of branch fetches per cycle (Ratio)
system.cpu1.fetchStats0.numFetchSuspends            0                       # Number of times Execute suspended instruction fetching (Count)
system.cpu1.interrupts.clk_domain.clock          8000                       # Clock period in ticks (Tick)
system.cpu1.mmu.dtb.rdAccesses                  13568                       # TLB accesses on read requests (Count)
system.cpu1.mmu.dtb.wrAccesses                  11893                       # TLB accesses on write requests (Count)
system.cpu1.mmu.dtb.rdMisses                       17                       # TLB misses on read requests (Count)
system.cpu1.mmu.dtb.wrMisses                        9                       # TLB misses on write requests (Count)
system.cpu1.mmu.dtb.walker.power_state.pwrStateResidencyTicks::UNDEFINED   1733786000                       # Cumulative time (in ticks) in various power states (Tick)
system.cpu1.mmu.itb.rdAccesses                      0                       # TLB accesses on read requests (Count)
system.cpu1.mmu.itb.wrAccesses                 210010                       # TLB accesses on write requests (Count)
system.cpu1.mmu.itb.rdMisses                        0                       # TLB misses on read requests (Count)
system.cpu1.mmu.itb.wrMisses                       46                       # TLB misses on write requests (Count)
system.cpu1.mmu.itb.walker.power_state.pwrStateResidencyTicks::UNDEFINED   1733786000                       # Cumulative time (in ticks) in various power states (Tick)
system.cpu1.power_state.pwrStateResidencyTicks::ON   1733786000                       # Cumulative time (in ticks) in various power states (Tick)
system.cpu1.thread_0.numInsts                       0                       # Number of Instructions committed (Count)
system.cpu1.thread_0.numOps                         0                       # Number of Ops committed (Count)
system.cpu1.thread_0.numMemRefs                     0                       # Number of Memory References (Count)
system.cpu1.workload.numSyscalls                   15                       # Number of system calls (Count)
system.cpu2.numCycles                         3467118                       # Number of cpu cycles simulated (Cycle)
system.cpu2.cpi                             23.931789                       # CPI: cycles per instruction (core level) ((Cycle/Count))
system.cpu2.ipc                              0.041785                       # IPC: instructions per cycle (core level) ((Count/Cycle))
system.cpu2.numWorkItemsStarted                     0                       # Number of work items this cpu started (Count)
system.cpu2.numWorkItemsCompleted                   0                       # Number of work items this cpu completed (Count)
system.cpu2.commitStats0.numInsts              144875                       # Number of instructions committed (thread level) (Count)
system.cpu2.commitStats0.numOps                280561                       # Number of ops (including micro ops) committed (thread level) (Count)
system.cpu2.commitStats0.numInstsNotNOP             0                       # Number of instructions committed excluding NOPs or prefetches (Count)
system.cpu2.commitStats0.numOpsNotNOP               0                       # Number of Ops (including micro ops) Simulated (Count)
system.cpu2.commitStats0.cpi                23.931789                       # CPI: cycles per instruction (thread level) ((Cycle/Count))
system.cpu2.commitStats0.ipc                 0.041785                       # IPC: instructions per cycle (thread level) ((Count/Cycle))
system.cpu2.commitStats0.numMemRefs                 0                       # Number of memory references committed (Count)
system.cpu2.commitStats0.numFpInsts              1354                       # Number of float instructions (Count)
system.cpu2.commitStats0.numIntInsts           279701                       # Number of integer instructions (Count)
system.cpu2.commitStats0.numLoadInsts           13519                       # Number of load instructions (Count)
system.cpu2.commitStats0.numStoreInsts          11895                       # Number of store instructions (Count)
system.cpu2.commitStats0.numVecInsts                0                       # Number of vector instructions (Count)
system.cpu2.commitStats0.committedInstType::No_OpClass          209      0.07%      0.07% # Class of committed instruction. (Count)
system.cpu2.commitStats0.committedInstType::IntAlu       254352     90.66%     90.73% # Class of committed instruction. (Count)
system.cpu2.commitStats0.committedInstType::IntMult           12      0.00%     90.74% # Class of committed instruction. (Count)
system.cpu2.commitStats0.committedInstType::IntDiv           21      0.01%     90.74% # Class of committed instruction. (Count)
system.cpu2.commitStats0.committedInstType::FloatAdd          172      0.06%     90.81% # Class of committed instruction. (Count)
system.cpu2.commitStats0.committedInstType::FloatCmp            0      0.00%     90.81% # Class of committed instruction. (Count)
system.cpu2.commitStats0.committedInstType::FloatCvt            0      0.00%     90.81% # Class of committed instruction. (Count)
system.cpu2.commitStats0.committedInstType::FloatMult            0      0.00%     90.81% # Class of committed instruction. (Count)
system.cpu2.commitStats0.committedInstType::FloatMultAcc            0      0.00%     90.81% # Class of committed instruction. (Count)
system.cpu2.commitStats0.committedInstType::FloatDiv            0      0.00%     90.81% # Class of committed instruction. (Count)
system.cpu2.commitStats0.committedInstType::FloatMisc            0      0.00%     90.81% # Class of committed instruction. (Count)
system.cpu2.commitStats0.committedInstType::FloatSqrt            0      0.00%     90.81% # Class of committed instruction. (Count)
system.cpu2.commitStats0.committedInstType::SimdAdd            8      0.00%     90.81% # Class of committed instruction. (Count)
system.cpu2.commitStats0.committedInstType::SimdAddAcc            0      0.00%     90.81% # Class of committed instruction. (Count)
system.cpu2.commitStats0.committedInstType::SimdAlu           96      0.03%     90.84% # Class of committed instruction. (Count)
system.cpu2.commitStats0.committedInstType::SimdCmp            0      0.00%     90.84% # Class of committed instruction. (Count)
system.cpu2.commitStats0.committedInstType::SimdCvt           48      0.02%     90.86% # Class of committed instruction. (Count)
system.cpu2.commitStats0.committedInstType::SimdMisc          229      0.08%     90.94% # Class of committed instruction. (Count)
system.cpu2.commitStats0.committedInstType::SimdMult            0      0.00%     90.94% # Class of committed instruction. (Count)
system.cpu2.commitStats0.committedInstType::SimdMultAcc            0      0.00%     90.94% # Class of committed instruction. (Count)
system.cpu2.commitStats0.committedInstType::SimdMatMultAcc            0      0.00%     90.94% # Class of committed instruction. (Count)
system.cpu2.commitStats0.committedInstType::SimdShift            0      0.00%     90.94% # Class of committed instruction. (Count)
system.cpu2.commitStats0.committedInstType::SimdShiftAcc            0      0.00%     90.94% # Class of committed instruction. (Count)
system.cpu2.commitStats0.committedInstType::SimdDiv            0      0.00%     90.94% # Class of committed instruction. (Count)
system.cpu2.commitStats0.committedInstType::SimdSqrt            0      0.00%     90.94% # Class of committed instruction. (Count)
system.cpu2.commitStats0.committedInstType::SimdFloatAdd            0      0.00%     90.94% # Class of committed instruction. (Count)
system.cpu2.commitStats0.committedInstType::SimdFloatAlu            0      0.00%     90.94% # Class of committed instruction. (Count)
system.cpu2.commitStats0.committedInstType::SimdFloatCmp            0      0.00%     90.94% # Class of committed instruction. (Count)
system.cpu2.commitStats0.committedInstType::SimdFloatCvt            0      0.00%     90.94% # Class of committed instruction. (Count)
system.cpu2.commitStats0.committedInstType::SimdFloatDiv            0      0.00%     90.94% # Class of committed instruction. (Count)
system.cpu2.commitStats0.committedInstType::SimdFloatMisc            0      0.00%     90.94% # Class of committed instruction. (Count)
system.cpu2.commitStats0.committedInstType::SimdFloatMult            0      0.00%     90.94% # Class of committed instruction. (Count)
system.cpu2.commitStats0.committedInstType::SimdFloatMultAcc            0      0.00%     90.94% # Class of committed instruction. (Count)
system.cpu2.commitStats0.committedInstType::SimdFloatMatMultAcc            0      0.00%     90.94% # Class of committed instruction. (Count)
system.cpu2.commitStats0.committedInstType::SimdFloatSqrt            0      0.00%     90.94% # Class of committed instruction. (Count)
system.cpu2.commitStats0.committedInstType::SimdReduceAdd            0      0.00%     90.94% # Class of committed instruction. (Count)
system.cpu2.commitStats0.committedInstType::SimdReduceAlu            0      0.00%     90.94% # Class of committed instruction. (Count)
system.cpu2.commitStats0.committedInstType::SimdReduceCmp            0      0.00%     90.94% # Class of committed instruction. (Count)
system.cpu2.commitStats0.committedInstType::SimdFloatReduceAdd            0      0.00%     90.94% # Class of committed instruction. (Count)
system.cpu2.commitStats0.committedInstType::SimdFloatReduceCmp            0      0.00%     90.94% # Class of committed instruction. (Count)
system.cpu2.commitStats0.committedInstType::SimdAes            0      0.00%     90.94% # Class of committed instruction. (Count)
system.cpu2.commitStats0.committedInstType::SimdAesMix            0      0.00%     90.94% # Class of committed instruction. (Count)
system.cpu2.commitStats0.committedInstType::SimdSha1Hash            0      0.00%     90.94% # Class of committed instruction. (Count)
system.cpu2.commitStats0.committedInstType::SimdSha1Hash2            0      0.00%     90.94% # Class of committed instruction. (Count)
system.cpu2.commitStats0.committedInstType::SimdSha256Hash            0      0.00%     90.94% # Class of committed instruction. (Count)
system.cpu2.commitStats0.committedInstType::SimdSha256Hash2            0      0.00%     90.94% # Class of committed instruction. (Count)
system.cpu2.commitStats0.committedInstType::SimdShaSigma2            0      0.00%     90.94% # Class of committed instruction. (Count)
system.cpu2.commitStats0.committedInstType::SimdShaSigma3            0      0.00%     90.94% # Class of committed instruction. (Count)
system.cpu2.commitStats0.committedInstType::SimdPredAlu            0      0.00%     90.94% # Class of committed instruction. (Count)
system.cpu2.commitStats0.committedInstType::Matrix            0      0.00%     90.94% # Class of committed instruction. (Count)
system.cpu2.commitStats0.committedInstType::MatrixMov            0      0.00%     90.94% # Class of committed instruction. (Count)
system.cpu2.commitStats0.committedInstType::MatrixOP            0      0.00%     90.94% # Class of committed instruction. (Count)
system.cpu2.commitStats0.committedInstType::MemRead        13398      4.78%     95.72% # Class of committed instruction. (Count)
system.cpu2.commitStats0.committedInstType::MemWrite        11372      4.05%     99.77% # Class of committed instruction. (Count)
system.cpu2.commitStats0.committedInstType::FloatMemRead          121      0.04%     99.81% # Class of committed instruction. (Count)
system.cpu2.commitStats0.committedInstType::FloatMemWrite          523      0.19%    100.00% # Class of committed instruction. (Count)
system.cpu2.commitStats0.committedInstType::IprAccess            0      0.00%    100.00% # Class of committed instruction. (Count)
system.cpu2.commitStats0.committedInstType::InstPrefetch            0      0.00%    100.00% # Class of committed instruction. (Count)
system.cpu2.commitStats0.committedInstType::SimdUnitStrideLoad            0      0.00%    100.00% # Class of committed instruction. (Count)
system.cpu2.commitStats0.committedInstType::SimdUnitStrideStore            0      0.00%    100.00% # Class of committed instruction. (Count)
system.cpu2.commitStats0.committedInstType::SimdUnitStrideMaskLoad            0      0.00%    100.00% # Class of committed instruction. (Count)
system.cpu2.commitStats0.committedInstType::SimdUnitStrideMaskStore            0      0.00%    100.00% # Class of committed instruction. (Count)
system.cpu2.commitStats0.committedInstType::SimdStridedLoad            0      0.00%    100.00% # Class of committed instruction. (Count)
system.cpu2.commitStats0.committedInstType::SimdStridedStore            0      0.00%    100.00% # Class of committed instruction. (Count)
system.cpu2.commitStats0.committedInstType::SimdIndexedLoad            0      0.00%    100.00% # Class of committed instruction. (Count)
system.cpu2.commitStats0.committedInstType::SimdIndexedStore            0      0.00%    100.00% # Class of committed instruction. (Count)
system.cpu2.commitStats0.committedInstType::SimdWholeRegisterLoad            0      0.00%    100.00% # Class of committed instruction. (Count)
system.cpu2.commitStats0.committedInstType::SimdWholeRegisterStore            0      0.00%    100.00% # Class of committed instruction. (Count)
system.cpu2.commitStats0.committedInstType::SimdUnitStrideFaultOnlyFirstLoad            0      0.00%    100.00% # Class of committed instruction. (Count)
system.cpu2.commitStats0.committedInstType::SimdUnitStrideSegmentedLoad            0      0.00%    100.00% # Class of committed instruction. (Count)
system.cpu2.commitStats0.committedInstType::SimdUnitStrideSegmentedStore            0      0.00%    100.00% # Class of committed instruction. (Count)
system.cpu2.commitStats0.committedInstType::SimdUnitStrideSegmentedFaultOnlyFirstLoad            0      0.00%    100.00% # Class of committed instruction. (Count)
system.cpu2.commitStats0.committedInstType::SimdStrideSegmentedLoad            0      0.00%    100.00% # Class of committed instruction. (Count)
system.cpu2.commitStats0.committedInstType::SimdStrideSegmentedStore            0      0.00%    100.00% # Class of committed instruction. (Count)
system.cpu2.commitStats0.committedInstType::SimdExt            0      0.00%    100.00% # Class of committed instruction. (Count)
system.cpu2.commitStats0.committedInstType::SimdFloatExt            0      0.00%    100.00% # Class of committed instruction. (Count)
system.cpu2.commitStats0.committedInstType::SimdConfig            0      0.00%    100.00% # Class of committed instruction. (Count)
system.cpu2.commitStats0.committedInstType::total       280561                       # Class of committed instruction. (Count)
system.cpu2.commitStats0.committedControl::IsControl        53683                       # Class of control type instructions committed (Count)
system.cpu2.commitStats0.committedControl::IsDirectControl        53435                       # Class of control type instructions committed (Count)
system.cpu2.commitStats0.committedControl::IsIndirectControl          248                       # Class of control type instructions committed (Count)
system.cpu2.commitStats0.committedControl::IsCondControl        43147                       # Class of control type instructions committed (Count)
system.cpu2.commitStats0.committedControl::IsUncondControl        10536                       # Class of control type instructions committed (Count)
system.cpu2.commitStats0.committedControl::IsCall          180                       # Class of control type instructions committed (Count)
system.cpu2.commitStats0.committedControl::IsReturn          175                       # Class of control type instructions committed (Count)
system.cpu2.exec_context.thread_0.numMatAluAccesses            0                       # Number of matrix alu accesses (Count)
system.cpu2.exec_context.thread_0.numCallsReturns          355                       # Number of times a function call or return occured (Count)
system.cpu2.exec_context.thread_0.numMatInsts            0                       # Number of matrix instructions (Count)
system.cpu2.exec_context.thread_0.numIdleCycles   453.942558                       # Number of idle cycles (Cycle)
system.cpu2.exec_context.thread_0.numBusyCycles 3466664.057442                       # Number of busy cycles (Cycle)
system.cpu2.exec_context.thread_0.notIdleFraction     0.999869                       # Percentage of non-idle cycles (Ratio)
system.cpu2.exec_context.thread_0.idleFraction     0.000131                       # Percentage of idle cycles (Ratio)
system.cpu2.executeStats0.numInsts                  0                       # Number of executed instructions (Count)
system.cpu2.executeStats0.numNop                    0                       # Number of nop insts executed (Count)
system.cpu2.executeStats0.numBranches               0                       # Number of branches executed (Count)
system.cpu2.executeStats0.numLoadInsts              0                       # Number of load instructions executed (Count)
system.cpu2.executeStats0.numStoreInsts         25414                       # Number of stores executed (Count)
system.cpu2.executeStats0.instRate                  0                       # Inst execution rate ((Count/Cycle))
system.cpu2.executeStats0.numFpAluAccesses         1354                       # Number of float alu accesses (Count)
system.cpu2.executeStats0.numFpRegReads          1462                       # Number of times the floating registers were read (Count)
system.cpu2.executeStats0.numFpRegWrites          785                       # Number of times the floating registers were written (Count)
system.cpu2.executeStats0.numIntAluAccesses       279701                       # Number of integer alu accesses (Count)
system.cpu2.executeStats0.numIntRegReads       288682                       # Number of times the integer registers were read (Count)
system.cpu2.executeStats0.numIntRegWrites       171007                       # Number of times the integer registers were written (Count)
system.cpu2.executeStats0.numMemRefs            25414                       # Number of memory refs (Count)
system.cpu2.executeStats0.numMiscRegReads       132995                       # Number of times the Misc registers were read (Count)
system.cpu2.executeStats0.numVecAluAccesses            0                       # Number of vector alu accesses (Count)
system.cpu2.executeStats0.numDiscardedOps            0                       # Number of ops (including micro ops) which were discarded before commit (Count)
system.cpu2.fetchStats0.numInsts               144875                       # Number of instructions fetched (thread level) (Count)
system.cpu2.fetchStats0.numOps                 280561                       # Number of ops (including micro ops) fetched (thread level) (Count)
system.cpu2.fetchStats0.fetchRate            0.041785                       # Number of inst fetches per cycle ((Count/Cycle))
system.cpu2.fetchStats0.numBranches             53683                       # Number of branches fetched (Count)
system.cpu2.fetchStats0.branchRate           0.015483                       # Number of branch fetches per cycle (Ratio)
system.cpu2.fetchStats0.numFetchSuspends            0                       # Number of times Execute suspended instruction fetching (Count)
system.cpu2.interrupts.clk_domain.clock          8000                       # Clock period in ticks (Tick)
system.cpu2.mmu.dtb.rdAccesses                  13523                       # TLB accesses on read requests (Count)
system.cpu2.mmu.dtb.wrAccesses                  11895                       # TLB accesses on write requests (Count)
system.cpu2.mmu.dtb.rdMisses                       17                       # TLB misses on read requests (Count)
system.cpu2.mmu.dtb.wrMisses                        9                       # TLB misses on write requests (Count)
system.cpu2.mmu.dtb.walker.power_state.pwrStateResidencyTicks::UNDEFINED   1733786000                       # Cumulative time (in ticks) in various power states (Tick)
system.cpu2.mmu.itb.rdAccesses                      0                       # TLB accesses on read requests (Count)
system.cpu2.mmu.itb.wrAccesses                 209818                       # TLB accesses on write requests (Count)
system.cpu2.mmu.itb.rdMisses                        0                       # TLB misses on read requests (Count)
system.cpu2.mmu.itb.wrMisses                       46                       # TLB misses on write requests (Count)
system.cpu2.mmu.itb.walker.power_state.pwrStateResidencyTicks::UNDEFINED   1733786000                       # Cumulative time (in ticks) in various power states (Tick)
system.cpu2.power_state.pwrStateResidencyTicks::ON   1733786000                       # Cumulative time (in ticks) in various power states (Tick)
system.cpu2.thread_0.numInsts                       0                       # Number of Instructions committed (Count)
system.cpu2.thread_0.numOps                         0                       # Number of Ops committed (Count)
system.cpu2.thread_0.numMemRefs                     0                       # Number of Memory References (Count)
system.cpu2.workload.numSyscalls                   15                       # Number of system calls (Count)
system.cpu3.numCycles                         3467196                       # Number of cpu cycles simulated (Cycle)
system.cpu3.cpi                             23.920440                       # CPI: cycles per instruction (core level) ((Cycle/Count))
system.cpu3.ipc                              0.041805                       # IPC: instructions per cycle (core level) ((Count/Cycle))
system.cpu3.numWorkItemsStarted                     0                       # Number of work items this cpu started (Count)
system.cpu3.numWorkItemsCompleted                   0                       # Number of work items this cpu completed (Count)
system.cpu3.commitStats0.numInsts              144947                       # Number of instructions committed (thread level) (Count)
system.cpu3.commitStats0.numOps                280731                       # Number of ops (including micro ops) committed (thread level) (Count)
system.cpu3.commitStats0.numInstsNotNOP             0                       # Number of instructions committed excluding NOPs or prefetches (Count)
system.cpu3.commitStats0.numOpsNotNOP               0                       # Number of Ops (including micro ops) Simulated (Count)
system.cpu3.commitStats0.cpi                23.920440                       # CPI: cycles per instruction (thread level) ((Cycle/Count))
system.cpu3.commitStats0.ipc                 0.041805                       # IPC: instructions per cycle (thread level) ((Count/Cycle))
system.cpu3.commitStats0.numMemRefs                 0                       # Number of memory references committed (Count)
system.cpu3.commitStats0.numFpInsts              1354                       # Number of float instructions (Count)
system.cpu3.commitStats0.numIntInsts           279870                       # Number of integer instructions (Count)
system.cpu3.commitStats0.numLoadInsts           13554                       # Number of load instructions (Count)
system.cpu3.commitStats0.numStoreInsts          11893                       # Number of store instructions (Count)
system.cpu3.commitStats0.numVecInsts                0                       # Number of vector instructions (Count)
system.cpu3.commitStats0.committedInstType::No_OpClass          210      0.07%      0.07% # Class of committed instruction. (Count)
system.cpu3.commitStats0.committedInstType::IntAlu       254488     90.65%     90.73% # Class of committed instruction. (Count)
system.cpu3.commitStats0.committedInstType::IntMult           12      0.00%     90.73% # Class of committed instruction. (Count)
system.cpu3.commitStats0.committedInstType::IntDiv           21      0.01%     90.74% # Class of committed instruction. (Count)
system.cpu3.commitStats0.committedInstType::FloatAdd          172      0.06%     90.80% # Class of committed instruction. (Count)
system.cpu3.commitStats0.committedInstType::FloatCmp            0      0.00%     90.80% # Class of committed instruction. (Count)
system.cpu3.commitStats0.committedInstType::FloatCvt            0      0.00%     90.80% # Class of committed instruction. (Count)
system.cpu3.commitStats0.committedInstType::FloatMult            0      0.00%     90.80% # Class of committed instruction. (Count)
system.cpu3.commitStats0.committedInstType::FloatMultAcc            0      0.00%     90.80% # Class of committed instruction. (Count)
system.cpu3.commitStats0.committedInstType::FloatDiv            0      0.00%     90.80% # Class of committed instruction. (Count)
system.cpu3.commitStats0.committedInstType::FloatMisc            0      0.00%     90.80% # Class of committed instruction. (Count)
system.cpu3.commitStats0.committedInstType::FloatSqrt            0      0.00%     90.80% # Class of committed instruction. (Count)
system.cpu3.commitStats0.committedInstType::SimdAdd            8      0.00%     90.80% # Class of committed instruction. (Count)
system.cpu3.commitStats0.committedInstType::SimdAddAcc            0      0.00%     90.80% # Class of committed instruction. (Count)
system.cpu3.commitStats0.committedInstType::SimdAlu           96      0.03%     90.84% # Class of committed instruction. (Count)
system.cpu3.commitStats0.committedInstType::SimdCmp            0      0.00%     90.84% # Class of committed instruction. (Count)
system.cpu3.commitStats0.committedInstType::SimdCvt           48      0.02%     90.85% # Class of committed instruction. (Count)
system.cpu3.commitStats0.committedInstType::SimdMisc          229      0.08%     90.94% # Class of committed instruction. (Count)
system.cpu3.commitStats0.committedInstType::SimdMult            0      0.00%     90.94% # Class of committed instruction. (Count)
system.cpu3.commitStats0.committedInstType::SimdMultAcc            0      0.00%     90.94% # Class of committed instruction. (Count)
system.cpu3.commitStats0.committedInstType::SimdMatMultAcc            0      0.00%     90.94% # Class of committed instruction. (Count)
system.cpu3.commitStats0.committedInstType::SimdShift            0      0.00%     90.94% # Class of committed instruction. (Count)
system.cpu3.commitStats0.committedInstType::SimdShiftAcc            0      0.00%     90.94% # Class of committed instruction. (Count)
system.cpu3.commitStats0.committedInstType::SimdDiv            0      0.00%     90.94% # Class of committed instruction. (Count)
system.cpu3.commitStats0.committedInstType::SimdSqrt            0      0.00%     90.94% # Class of committed instruction. (Count)
system.cpu3.commitStats0.committedInstType::SimdFloatAdd            0      0.00%     90.94% # Class of committed instruction. (Count)
system.cpu3.commitStats0.committedInstType::SimdFloatAlu            0      0.00%     90.94% # Class of committed instruction. (Count)
system.cpu3.commitStats0.committedInstType::SimdFloatCmp            0      0.00%     90.94% # Class of committed instruction. (Count)
system.cpu3.commitStats0.committedInstType::SimdFloatCvt            0      0.00%     90.94% # Class of committed instruction. (Count)
system.cpu3.commitStats0.committedInstType::SimdFloatDiv            0      0.00%     90.94% # Class of committed instruction. (Count)
system.cpu3.commitStats0.committedInstType::SimdFloatMisc            0      0.00%     90.94% # Class of committed instruction. (Count)
system.cpu3.commitStats0.committedInstType::SimdFloatMult            0      0.00%     90.94% # Class of committed instruction. (Count)
system.cpu3.commitStats0.committedInstType::SimdFloatMultAcc            0      0.00%     90.94% # Class of committed instruction. (Count)
system.cpu3.commitStats0.committedInstType::SimdFloatMatMultAcc            0      0.00%     90.94% # Class of committed instruction. (Count)
system.cpu3.commitStats0.committedInstType::SimdFloatSqrt            0      0.00%     90.94% # Class of committed instruction. (Count)
system.cpu3.commitStats0.committedInstType::SimdReduceAdd            0      0.00%     90.94% # Class of committed instruction. (Count)
system.cpu3.commitStats0.committedInstType::SimdReduceAlu            0      0.00%     90.94% # Class of committed instruction. (Count)
system.cpu3.commitStats0.committedInstType::SimdReduceCmp            0      0.00%     90.94% # Class of committed instruction. (Count)
system.cpu3.commitStats0.committedInstType::SimdFloatReduceAdd            0      0.00%     90.94% # Class of committed instruction. (Count)
system.cpu3.commitStats0.committedInstType::SimdFloatReduceCmp            0      0.00%     90.94% # Class of committed instruction. (Count)
system.cpu3.commitStats0.committedInstType::SimdAes            0      0.00%     90.94% # Class of committed instruction. (Count)
system.cpu3.commitStats0.committedInstType::SimdAesMix            0      0.00%     90.94% # Class of committed instruction. (Count)
system.cpu3.commitStats0.committedInstType::SimdSha1Hash            0      0.00%     90.94% # Class of committed instruction. (Count)
system.cpu3.commitStats0.committedInstType::SimdSha1Hash2            0      0.00%     90.94% # Class of committed instruction. (Count)
system.cpu3.commitStats0.committedInstType::SimdSha256Hash            0      0.00%     90.94% # Class of committed instruction. (Count)
system.cpu3.commitStats0.committedInstType::SimdSha256Hash2            0      0.00%     90.94% # Class of committed instruction. (Count)
system.cpu3.commitStats0.committedInstType::SimdShaSigma2            0      0.00%     90.94% # Class of committed instruction. (Count)
system.cpu3.commitStats0.committedInstType::SimdShaSigma3            0      0.00%     90.94% # Class of committed instruction. (Count)
system.cpu3.commitStats0.committedInstType::SimdPredAlu            0      0.00%     90.94% # Class of committed instruction. (Count)
system.cpu3.commitStats0.committedInstType::Matrix            0      0.00%     90.94% # Class of committed instruction. (Count)
system.cpu3.commitStats0.committedInstType::MatrixMov            0      0.00%     90.94% # Class of committed instruction. (Count)
system.cpu3.commitStats0.committedInstType::MatrixOP            0      0.00%     90.94% # Class of committed instruction. (Count)
system.cpu3.commitStats0.committedInstType::MemRead        13433      4.79%     95.72% # Class of committed instruction. (Count)
system.cpu3.commitStats0.committedInstType::MemWrite        11370      4.05%     99.77% # Class of committed instruction. (Count)
system.cpu3.commitStats0.committedInstType::FloatMemRead          121      0.04%     99.81% # Class of committed instruction. (Count)
system.cpu3.commitStats0.committedInstType::FloatMemWrite          523      0.19%    100.00% # Class of committed instruction. (Count)
system.cpu3.commitStats0.committedInstType::IprAccess            0      0.00%    100.00% # Class of committed instruction. (Count)
system.cpu3.commitStats0.committedInstType::InstPrefetch            0      0.00%    100.00% # Class of committed instruction. (Count)
system.cpu3.commitStats0.committedInstType::SimdUnitStrideLoad            0      0.00%    100.00% # Class of committed instruction. (Count)
system.cpu3.commitStats0.committedInstType::SimdUnitStrideStore            0      0.00%    100.00% # Class of committed instruction. (Count)
system.cpu3.commitStats0.committedInstType::SimdUnitStrideMaskLoad            0      0.00%    100.00% # Class of committed instruction. (Count)
system.cpu3.commitStats0.committedInstType::SimdUnitStrideMaskStore            0      0.00%    100.00% # Class of committed instruction. (Count)
system.cpu3.commitStats0.committedInstType::SimdStridedLoad            0      0.00%    100.00% # Class of committed instruction. (Count)
system.cpu3.commitStats0.committedInstType::SimdStridedStore            0      0.00%    100.00% # Class of committed instruction. (Count)
system.cpu3.commitStats0.committedInstType::SimdIndexedLoad            0      0.00%    100.00% # Class of committed instruction. (Count)
system.cpu3.commitStats0.committedInstType::SimdIndexedStore            0      0.00%    100.00% # Class of committed instruction. (Count)
system.cpu3.commitStats0.committedInstType::SimdWholeRegisterLoad            0      0.00%    100.00% # Class of committed instruction. (Count)
system.cpu3.commitStats0.committedInstType::SimdWholeRegisterStore            0      0.00%    100.00% # Class of committed instruction. (Count)
system.cpu3.commitStats0.committedInstType::SimdUnitStrideFaultOnlyFirstLoad            0      0.00%    100.00% # Class of committed instruction. (Count)
system.cpu3.commitStats0.committedInstType::SimdUnitStrideSegmentedLoad            0      0.00%    100.00% # Class of committed instruction. (Count)
system.cpu3.commitStats0.committedInstType::SimdUnitStrideSegmentedStore            0      0.00%    100.00% # Class of committed instruction. (Count)
system.cpu3.commitStats0.committedInstType::SimdUnitStrideSegmentedFaultOnlyFirstLoad            0      0.00%    100.00% # Class of committed instruction. (Count)
system.cpu3.commitStats0.committedInstType::SimdStrideSegmentedLoad            0      0.00%    100.00% # Class of committed instruction. (Count)
system.cpu3.commitStats0.committedInstType::SimdStrideSegmentedStore            0      0.00%    100.00% # Class of committed instruction. (Count)
system.cpu3.commitStats0.committedInstType::SimdExt            0      0.00%    100.00% # Class of committed instruction. (Count)
system.cpu3.commitStats0.committedInstType::SimdFloatExt            0      0.00%    100.00% # Class of committed instruction. (Count)
system.cpu3.commitStats0.committedInstType::SimdConfig            0      0.00%    100.00% # Class of committed instruction. (Count)
system.cpu3.commitStats0.committedInstType::total       280731                       # Class of committed instruction. (Count)
system.cpu3.commitStats0.committedControl::IsControl        53708                       # Class of control type instructions committed (Count)
system.cpu3.commitStats0.committedControl::IsDirectControl        53460                       # Class of control type instructions committed (Count)
system.cpu3.commitStats0.committedControl::IsIndirectControl          248                       # Class of control type instructions committed (Count)
system.cpu3.commitStats0.committedControl::IsCondControl        43172                       # Class of control type instructions committed (Count)
system.cpu3.commitStats0.committedControl::IsUncondControl        10536                       # Class of control type instructions committed (Count)
system.cpu3.commitStats0.committedControl::IsCall          180                       # Class of control type instructions committed (Count)
system.cpu3.commitStats0.committedControl::IsReturn          175                       # Class of control type instructions committed (Count)
system.cpu3.exec_context.thread_0.numMatAluAccesses            0                       # Number of matrix alu accesses (Count)
system.cpu3.exec_context.thread_0.numCallsReturns          355                       # Number of times a function call or return occured (Count)
system.cpu3.exec_context.thread_0.numMatInsts            0                       # Number of matrix instructions (Count)
system.cpu3.exec_context.thread_0.numIdleCycles   375.961229                       # Number of idle cycles (Cycle)
system.cpu3.exec_context.thread_0.numBusyCycles 3466820.038771                       # Number of busy cycles (Cycle)
system.cpu3.exec_context.thread_0.notIdleFraction     0.999892                       # Percentage of non-idle cycles (Ratio)
system.cpu3.exec_context.thread_0.idleFraction     0.000108                       # Percentage of idle cycles (Ratio)
system.cpu3.executeStats0.numInsts                  0                       # Number of executed instructions (Count)
system.cpu3.executeStats0.numNop                    0                       # Number of nop insts executed (Count)
system.cpu3.executeStats0.numBranches               0                       # Number of branches executed (Count)
system.cpu3.executeStats0.numLoadInsts              0                       # Number of load instructions executed (Count)
system.cpu3.executeStats0.numStoreInsts         25447                       # Number of stores executed (Count)
system.cpu3.executeStats0.instRate                  0                       # Inst execution rate ((Count/Cycle))
system.cpu3.executeStats0.numFpAluAccesses         1354                       # Number of float alu accesses (Count)
system.cpu3.executeStats0.numFpRegReads          1462                       # Number of times the floating registers were read (Count)
system.cpu3.executeStats0.numFpRegWrites          785                       # Number of times the floating registers were written (Count)
system.cpu3.executeStats0.numIntAluAccesses       279870                       # Number of integer alu accesses (Count)
system.cpu3.executeStats0.numIntRegReads       288813                       # Number of times the integer registers were read (Count)
system.cpu3.executeStats0.numIntRegWrites       171128                       # Number of times the integer registers were written (Count)
system.cpu3.executeStats0.numMemRefs            25447                       # Number of memory refs (Count)
system.cpu3.executeStats0.numMiscRegReads       133078                       # Number of times the Misc registers were read (Count)
system.cpu3.executeStats0.numVecAluAccesses            0                       # Number of vector alu accesses (Count)
system.cpu3.executeStats0.numDiscardedOps            0                       # Number of ops (including micro ops) which were discarded before commit (Count)
system.cpu3.fetchStats0.numInsts               144947                       # Number of instructions fetched (thread level) (Count)
system.cpu3.fetchStats0.numOps                 280731                       # Number of ops (including micro ops) fetched (thread level) (Count)
system.cpu3.fetchStats0.fetchRate            0.041805                       # Number of inst fetches per cycle ((Count/Cycle))
system.cpu3.fetchStats0.numBranches             53708                       # Number of branches fetched (Count)
system.cpu3.fetchStats0.branchRate           0.015490                       # Number of branch fetches per cycle (Ratio)
system.cpu3.fetchStats0.numFetchSuspends            0                       # Number of times Execute suspended instruction fetching (Count)
system.cpu3.interrupts.clk_domain.clock          8000                       # Clock period in ticks (Tick)
system.cpu3.mmu.dtb.rdAccesses                  13558                       # TLB accesses on read requests (Count)
system.cpu3.mmu.dtb.wrAccesses                  11893                       # TLB accesses on write requests (Count)
system.cpu3.mmu.dtb.rdMisses                       17                       # TLB misses on read requests (Count)
system.cpu3.mmu.dtb.wrMisses                        9                       # TLB misses on write requests (Count)
system.cpu3.mmu.dtb.walker.power_state.pwrStateResidencyTicks::UNDEFINED   1733786000                       # Cumulative time (in ticks) in various power states (Tick)
system.cpu3.mmu.itb.rdAccesses                      0                       # TLB accesses on read requests (Count)
system.cpu3.mmu.itb.wrAccesses                 209914                       # TLB accesses on write requests (Count)
system.cpu3.mmu.itb.rdMisses                        0                       # TLB misses on read requests (Count)
system.cpu3.mmu.itb.wrMisses                       46                       # TLB misses on write requests (Count)
system.cpu3.mmu.itb.walker.power_state.pwrStateResidencyTicks::UNDEFINED   1733786000                       # Cumulative time (in ticks) in various power states (Tick)
system.cpu3.power_state.pwrStateResidencyTicks::ON   1733786000                       # Cumulative time (in ticks) in various power states (Tick)
system.cpu3.thread_0.numInsts                       0                       # Number of Instructions committed (Count)
system.cpu3.thread_0.numOps                         0                       # Number of Ops committed (Count)
system.cpu3.thread_0.numMemRefs                     0                       # Number of Memory References (Count)
system.cpu3.workload.numSyscalls                   15                       # Number of system calls (Count)
system.cpu4.numCycles                         3467166                       # Number of cpu cycles simulated (Cycle)
system.cpu4.cpi                             23.902918                       # CPI: cycles per instruction (core level) ((Cycle/Count))
system.cpu4.ipc                              0.041836                       # IPC: instructions per cycle (core level) ((Count/Cycle))
system.cpu4.numWorkItemsStarted                     0                       # Number of work items this cpu started (Count)
system.cpu4.numWorkItemsCompleted                   0                       # Number of work items this cpu completed (Count)
system.cpu4.commitStats0.numInsts              145052                       # Number of instructions committed (thread level) (Count)
system.cpu4.commitStats0.numOps                280976                       # Number of ops (including micro ops) committed (thread level) (Count)
system.cpu4.commitStats0.numInstsNotNOP             0                       # Number of instructions committed excluding NOPs or prefetches (Count)
[...]
system.ruby.network.routers7.throttle01.total_msg_wait_time      3294000                       # Total time spend forwarding messages (Tick)
system.ruby.network.routers7.throttle01.total_stall_cy            0                       # Total time spent blocked on any output link (Cycle)
system.ruby.network.routers7.throttle01.total_bw_sat_cy        27272                       # Total time bandwidth was saturated on any output link (Cycle)
system.ruby.network.routers7.throttle01.avg_msg_wait_time   150.054665                       # Average time a message took to be forwarded (Ratio)
system.ruby.network.routers7.throttle01.avg_bandwidth         0.33                       # Average bandwidth (GB/s) (Ratio)
system.ruby.network.routers7.throttle01.avg_useful_bandwidth         0.23                       # Average useful (only data) bandwidth (GB/s) (Ratio)
system.ruby.network.routers7.throttle01.msg_count.Request_Control::0         7492                       (Unspecified)
system.ruby.network.routers7.throttle01.msg_bytes.Request_Control::0        59936                       (Unspecified)
system.ruby.network.routers7.throttle01.msg_count.ResponseLocal_Data::2         6680                       (Unspecified)
system.ruby.network.routers7.throttle01.msg_bytes.ResponseLocal_Data::2       480960                       (Unspecified)
system.ruby.network.routers7.throttle01.msg_count.Response_Control::2           10                       (Unspecified)
system.ruby.network.routers7.throttle01.msg_bytes.Response_Control::2           80                       (Unspecified)
system.ruby.network.routers7.throttle01.msg_count.Writeback_Data::0          138                       (Unspecified)
system.ruby.network.routers7.throttle01.msg_bytes.Writeback_Data::0         9936                       (Unspecified)
system.ruby.network.routers7.throttle01.msg_count.Writeback_Control::0          139                       (Unspecified)
system.ruby.network.routers7.throttle01.msg_bytes.Writeback_Control::0         1112                       (Unspecified)
system.ruby.network.routers7.throttle01.msg_count.Unblock_Control::2         7493                       (Unspecified)
system.ruby.network.routers7.throttle01.msg_bytes.Unblock_Control::2        59944                       (Unspecified)
system.ruby.network.routers8.percent_links_utilized     2.468182                       (Unspecified)
system.ruby.network.routers8.msg_count.Request_Control::0        60013                       (Unspecified)
system.ruby.network.routers8.msg_count.Request_Control::1         6452                       (Unspecified)
system.ruby.network.routers8.msg_bytes.Request_Control::0       480104                       (Unspecified)
system.ruby.network.routers8.msg_bytes.Request_Control::1        51616                       (Unspecified)
system.ruby.network.routers8.msg_count.Response_Data::2        12904                       (Unspecified)
system.ruby.network.routers8.msg_bytes.Response_Data::2       929088                       (Unspecified)
system.ruby.network.routers8.msg_count.ResponseL2hit_Data::2           96                       (Unspecified)
system.ruby.network.routers8.msg_bytes.ResponseL2hit_Data::2         6912                       (Unspecified)
system.ruby.network.routers8.msg_count.Response_Control::2        26703                       (Unspecified)
system.ruby.network.routers8.msg_bytes.Response_Control::2       213624                       (Unspecified)
system.ruby.network.routers8.msg_count.Writeback_Data::0         1110                       (Unspecified)
system.ruby.network.routers8.msg_bytes.Writeback_Data::0        79920                       (Unspecified)
system.ruby.network.routers8.msg_count.Writeback_Control::0         1118                       (Unspecified)
system.ruby.network.routers8.msg_count.Writeback_Control::2         1118                       (Unspecified)
system.ruby.network.routers8.msg_bytes.Writeback_Control::0         8944                       (Unspecified)
system.ruby.network.routers8.msg_bytes.Writeback_Control::2         8944                       (Unspecified)
system.ruby.network.routers8.msg_count.Forwarded_Control::0        53465                       (Unspecified)
system.ruby.network.routers8.msg_bytes.Forwarded_Control::0       427720                       (Unspecified)
system.ruby.network.routers8.msg_count.Invalidate_Control::0           14                       (Unspecified)
system.ruby.network.routers8.msg_bytes.Invalidate_Control::0          112                       (Unspecified)
system.ruby.network.routers8.msg_count.Unblock_Control::2        66471                       (Unspecified)
system.ruby.network.routers8.msg_bytes.Unblock_Control::2       531768                       (Unspecified)
system.ruby.network.routers8.port_buffers0.m_msg_count        62241                       # Number of messages passed the buffer (Count)
system.ruby.network.routers8.port_buffers0.m_buf_msgs     0.017949                       # Average number of messages in buffer ((Count/Tick))
system.ruby.network.routers8.port_buffers2.m_msg_count        66472                       # Number of messages passed the buffer (Count)
system.ruby.network.routers8.port_buffers2.m_buf_msgs     0.019170                       # Average number of messages in buffer ((Count/Tick))
system.ruby.network.routers8.port_buffers3.m_msg_count        53479                       # Number of messages passed the buffer (Count)
system.ruby.network.routers8.port_buffers3.m_buf_msgs     0.015429                       # Average number of messages in buffer ((Count/Tick))
system.ruby.network.routers8.port_buffers3.m_stall_time        11500                       # Total number of ticks messages were stalled in this buffer (Tick)
system.ruby.network.routers8.port_buffers3.m_avg_stall_time     0.215038                       # Average stall ticks per message ((Tick/Count))
system.ruby.network.routers8.port_buffers4.m_msg_count         6452                       # Number of messages passed the buffer (Count)
system.ruby.network.routers8.port_buffers4.m_buf_msgs     0.001946                       # Average number of messages in buffer ((Count/Tick))
system.ruby.network.routers8.port_buffers4.m_stall_time       147500                       # Total number of ticks messages were stalled in this buffer (Tick)
system.ruby.network.routers8.port_buffers4.m_avg_stall_time    22.861128                       # Average stall ticks per message ((Tick/Count))
system.ruby.network.routers8.port_buffers5.m_msg_count        40820                       # Number of messages passed the buffer (Count)
system.ruby.network.routers8.port_buffers5.m_buf_msgs     0.011932                       # Average number of messages in buffer ((Count/Tick))
system.ruby.network.routers8.port_buffers5.m_stall_time       278000                       # Total number of ticks messages were stalled in this buffer (Tick)
system.ruby.network.routers8.port_buffers5.m_avg_stall_time     6.810387                       # Average stall ticks per message ((Tick/Count))
system.ruby.network.routers8.power_state.pwrStateResidencyTicks::UNDEFINED   1733786000                       # Cumulative time (in ticks) in various power states (Tick)
system.ruby.network.routers8.throttle00.acc_link_utilization 94604.500000                       # Accumulated link utilization system.ruby.network.ext_links8 (Count)
system.ruby.network.routers8.throttle00.link_utilization     2.728263                       # Average link utilization (Ratio)
system.ruby.network.routers8.throttle00.total_msg_count       128713                       # Total number of messages forwarded by this switch (Count)
system.ruby.network.routers8.throttle00.total_msg_bytes      1513672                       # Total number of bytes forwarded by this switch (Byte)
system.ruby.network.routers8.throttle00.total_data_msg_bytes       483968                       # Total number of data bytes forwarded by this switch (Byte)
system.ruby.network.routers8.throttle00.total_msg_wait_time            0                       # Total time spend forwarding messages (Tick)
system.ruby.network.routers8.throttle00.total_stall_cy            0                       # Total time spent blocked on any output link (Cycle)
system.ruby.network.routers8.throttle00.total_bw_sat_cy        30340                       # Total time bandwidth was saturated on any output link (Cycle)
system.ruby.network.routers8.throttle00.avg_msg_wait_time            0                       # Average time a message took to be forwarded (Ratio)
system.ruby.network.routers8.throttle00.avg_bandwidth         0.81                       # Average bandwidth (GB/s) (Ratio)
system.ruby.network.routers8.throttle00.avg_useful_bandwidth         0.26                       # Average useful (only data) bandwidth (GB/s) (Ratio)
system.ruby.network.routers8.throttle00.msg_count.Request_Control::0        60013                       (Unspecified)
system.ruby.network.routers8.throttle00.msg_bytes.Request_Control::0       480104                       (Unspecified)
system.ruby.network.routers8.throttle00.msg_count.Response_Data::2         6452                       (Unspecified)
system.ruby.network.routers8.throttle00.msg_bytes.Response_Data::2       464544                       (Unspecified)
system.ruby.network.routers8.throttle00.msg_count.Writeback_Data::0         1110                       (Unspecified)
system.ruby.network.routers8.throttle00.msg_bytes.Writeback_Data::0        79920                       (Unspecified)
system.ruby.network.routers8.throttle00.msg_count.Writeback_Control::0         1118                       (Unspecified)
system.ruby.network.routers8.throttle00.msg_bytes.Writeback_Control::0         8944                       (Unspecified)
system.ruby.network.routers8.throttle00.msg_count.Unblock_Control::2        60020                       (Unspecified)
system.ruby.network.routers8.throttle00.msg_bytes.Unblock_Control::2       480160                       (Unspecified)
system.ruby.network.routers8.throttle01.acc_link_utilization 76567.500000                       # Accumulated link utilization system.ruby.network.int_links08 (Count)
system.ruby.network.routers8.throttle01.link_utilization     2.208101                       # Average link utilization (Ratio)
system.ruby.network.routers8.throttle01.total_msg_count       100751                       # Total number of messages forwarded by this switch (Count)
system.ruby.network.routers8.throttle01.total_msg_bytes      1225080                       # Total number of bytes forwarded by this switch (Byte)
system.ruby.network.routers8.throttle01.total_data_msg_bytes       419072                       # Total number of data bytes forwarded by this switch (Byte)
system.ruby.network.routers8.throttle01.total_msg_wait_time       437000                       # Total time spend forwarding messages (Tick)
system.ruby.network.routers8.throttle01.total_stall_cy            0                       # Total time spent blocked on any output link (Cycle)
system.ruby.network.routers8.throttle01.total_bw_sat_cy        26333                       # Total time bandwidth was saturated on any output link (Cycle)
system.ruby.network.routers8.throttle01.avg_msg_wait_time     4.337426                       # Average time a message took to be forwarded (Ratio)
system.ruby.network.routers8.throttle01.avg_bandwidth         0.66                       # Average bandwidth (GB/s) (Ratio)
system.ruby.network.routers8.throttle01.avg_useful_bandwidth         0.23                       # Average useful (only data) bandwidth (GB/s) (Ratio)
system.ruby.network.routers8.throttle01.msg_count.Request_Control::1         6452                       (Unspecified)
system.ruby.network.routers8.throttle01.msg_bytes.Request_Control::1        51616                       (Unspecified)
system.ruby.network.routers8.throttle01.msg_count.Response_Data::2         6452                       (Unspecified)
system.ruby.network.routers8.throttle01.msg_bytes.Response_Data::2       464544                       (Unspecified)
system.ruby.network.routers8.throttle01.msg_count.ResponseL2hit_Data::2           96                       (Unspecified)
system.ruby.network.routers8.throttle01.msg_bytes.ResponseL2hit_Data::2         6912                       (Unspecified)
system.ruby.network.routers8.throttle01.msg_count.Response_Control::2        26703                       (Unspecified)
system.ruby.network.routers8.throttle01.msg_bytes.Response_Control::2       213624                       (Unspecified)
system.ruby.network.routers8.throttle01.msg_count.Writeback_Control::2         1118                       (Unspecified)
system.ruby.network.routers8.throttle01.msg_bytes.Writeback_Control::2         8944                       (Unspecified)
system.ruby.network.routers8.throttle01.msg_count.Forwarded_Control::0        53465                       (Unspecified)
system.ruby.network.routers8.throttle01.msg_bytes.Forwarded_Control::0       427720                       (Unspecified)
system.ruby.network.routers8.throttle01.msg_count.Invalidate_Control::0           14                       (Unspecified)
system.ruby.network.routers8.throttle01.msg_bytes.Invalidate_Control::0          112                       (Unspecified)
system.ruby.network.routers8.throttle01.msg_count.Unblock_Control::2         6451                       (Unspecified)
system.ruby.network.routers8.throttle01.msg_bytes.Unblock_Control::2        51608                       (Unspecified)
system.ruby.network.routers9.percent_links_utilized     0.511676                       (Unspecified)
system.ruby.network.routers9.msg_count.Request_Control::1         6452                       (Unspecified)
system.ruby.network.routers9.msg_bytes.Request_Control::1        51616                       (Unspecified)
system.ruby.network.routers9.msg_count.Response_Data::2         6452                       (Unspecified)
system.ruby.network.routers9.msg_bytes.Response_Data::2       464544                       (Unspecified)
system.ruby.network.routers9.msg_count.Unblock_Control::2         6451                       (Unspecified)
system.ruby.network.routers9.msg_bytes.Unblock_Control::2        51608                       (Unspecified)
system.ruby.network.routers9.port_buffers1.m_msg_count         6452                       # Number of messages passed the buffer (Count)
system.ruby.network.routers9.port_buffers1.m_buf_msgs     0.001861                       # Average number of messages in buffer ((Count/Tick))
system.ruby.network.routers9.port_buffers2.m_msg_count         6451                       # Number of messages passed the buffer (Count)
system.ruby.network.routers9.port_buffers2.m_buf_msgs     0.001860                       # Average number of messages in buffer ((Count/Tick))
system.ruby.network.routers9.port_buffers5.m_msg_count         6452                       # Number of messages passed the buffer (Count)
system.ruby.network.routers9.port_buffers5.m_buf_msgs     0.001861                       # Average number of messages in buffer ((Count/Tick))
system.ruby.network.routers9.power_state.pwrStateResidencyTicks::UNDEFINED   1733786000                       # Cumulative time (in ticks) in various power states (Tick)
system.ruby.network.routers9.throttle00.acc_link_utilization  6451.500000                       # Accumulated link utilization system.ruby.network.ext_links9 (Count)
system.ruby.network.routers9.throttle00.link_utilization     0.186052                       # Average link utilization (Ratio)
system.ruby.network.routers9.throttle00.total_msg_count        12903                       # Total number of messages forwarded by this switch (Count)
system.ruby.network.routers9.throttle00.total_msg_bytes       103224                       # Total number of bytes forwarded by this switch (Byte)
system.ruby.network.routers9.throttle00.total_data_msg_bytes            0                       # Total number of data bytes forwarded by this switch (Byte)
system.ruby.network.routers9.throttle00.total_msg_wait_time            0                       # Total time spend forwarding messages (Tick)
system.ruby.network.routers9.throttle00.total_stall_cy            0                       # Total time spent blocked on any output link (Cycle)
system.ruby.network.routers9.throttle00.total_bw_sat_cy            0                       # Total time bandwidth was saturated on any output link (Cycle)
system.ruby.network.routers9.throttle00.avg_msg_wait_time            0                       # Average time a message took to be forwarded (Ratio)
system.ruby.network.routers9.throttle00.avg_bandwidth         0.06                       # Average bandwidth (GB/s) (Ratio)
system.ruby.network.routers9.throttle00.avg_useful_bandwidth         0.00                       # Average useful (only data) bandwidth (GB/s) (Ratio)
system.ruby.network.routers9.throttle00.msg_count.Request_Control::1         6452                       (Unspecified)
system.ruby.network.routers9.throttle00.msg_bytes.Request_Control::1        51616                       (Unspecified)
system.ruby.network.routers9.throttle00.msg_count.Unblock_Control::2         6451                       (Unspecified)
system.ruby.network.routers9.throttle00.msg_bytes.Unblock_Control::2        51608                       (Unspecified)
system.ruby.network.routers9.throttle01.acc_link_utilization        29034                       # Accumulated link utilization system.ruby.network.int_links09 (Count)
system.ruby.network.routers9.throttle01.link_utilization     0.837301                       # Average link utilization (Ratio)
system.ruby.network.routers9.throttle01.total_msg_count         6452                       # Total number of messages forwarded by this switch (Count)
system.ruby.network.routers9.throttle01.total_msg_bytes       464544                       # Total number of bytes forwarded by this switch (Byte)
system.ruby.network.routers9.throttle01.total_data_msg_bytes       412928                       # Total number of data bytes forwarded by this switch (Byte)
system.ruby.network.routers9.throttle01.total_msg_wait_time            0                       # Total time spend forwarding messages (Tick)
system.ruby.network.routers9.throttle01.total_stall_cy            0                       # Total time spent blocked on any output link (Cycle)
system.ruby.network.routers9.throttle01.total_bw_sat_cy        25808                       # Total time bandwidth was saturated on any output link (Cycle)
system.ruby.network.routers9.throttle01.avg_msg_wait_time            0                       # Average time a message took to be forwarded (Ratio)
system.ruby.network.routers9.throttle01.avg_bandwidth         0.25                       # Average bandwidth (GB/s) (Ratio)
system.ruby.network.routers9.throttle01.avg_useful_bandwidth         0.22                       # Average useful (only data) bandwidth (GB/s) (Ratio)
system.ruby.network.routers9.throttle01.msg_count.Response_Data::2         6452                       (Unspecified)
system.ruby.network.routers9.throttle01.msg_bytes.Response_Data::2       464544                       (Unspecified)
system.ruby.power_state.pwrStateResidencyTicks::UNDEFINED   1733786000                       # Cumulative time (in ticks) in various power states (Tick)
system.sys_port_proxy.power_state.pwrStateResidencyTicks::UNDEFINED   1733786000                       # Cumulative time (in ticks) in various power states (Tick)
system.voltage_domain.voltage                       1                       # Voltage in Volts (Volt)
system.workload.inst.arm                            0                       # number of arm instructions executed (Count)
system.workload.inst.quiesce                        0                       # number of quiesce instructions executed (Count)

---------- End Simulation Statistics   ----------
