
---------- Begin Simulation Statistics ----------
simSeconds                                   0.000485                       # Number of seconds simulated (Second)
simTicks                                    485268000                       # Number of ticks simulated (Tick)
finalTick                                   485268000                       # Number of ticks from beginning of simulation (restored from checkpoints and never reset) (Tick)
simFreq                                  1000000000000                       # The number of ticks per simulated second ((Tick/Second))
hostSeconds                                      0.77                       # Real time elapsed on the host (Second)
hostTickRate                                628251022                       # The number of ticks simulated per host second (ticks/s) ((Tick/Second))
hostMemory                                    2599856                       # Number of bytes of host memory used (Byte)
simInsts                                       286262                       # Number of instructions simulated (Count)
simOps                                         552100                       # Number of ops (including micro ops) simulated (Count)
hostInstRate                                   370571                       # Simulator instruction rate (inst/s) ((Count/Second))
hostOpRate                                     714700                       # Simulator op (including micro ops) rate (op/s) ((Count/Second))
system.clk_domain.clock                          1000                       # Clock period in ticks (Tick)
system.cpu0.numCycles                          970536                       # Number of cpu cycles simulated (Cycle)
system.cpu0.cpi                              6.858669                       # CPI: cycles per instruction (core level) ((Cycle/Count))
system.cpu0.ipc                              0.145801                       # IPC: instructions per cycle (core level) ((Count/Cycle))
system.cpu0.numWorkItemsStarted                     0                       # Number of work items this cpu started (Count)
system.cpu0.numWorkItemsCompleted                   0                       # Number of work items this cpu completed (Count)
system.cpu0.commitStats0.numInsts              141505                       # Number of instructions committed (thread level) (Count)
system.cpu0.commitStats0.numOps                271771                       # Number of ops (including micro ops) committed (thread level) (Count)
system.cpu0.commitStats0.numInstsNotNOP             0                       # Number of instructions committed excluding NOPs or prefetches (Count)
system.cpu0.commitStats0.numOpsNotNOP               0                       # Number of Ops (including micro ops) Simulated (Count)
system.cpu0.commitStats0.cpi                 6.858669                       # CPI: cycles per instruction (thread level) ((Cycle/Count))
system.cpu0.commitStats0.ipc                 0.145801                       # IPC: instructions per cycle (thread level) ((Count/Cycle))
system.cpu0.commitStats0.numMemRefs                 0                       # Number of memory references committed (Count)
system.cpu0.commitStats0.numFpInsts              1354                       # Number of float instructions (Count)
system.cpu0.commitStats0.numIntInsts           270911                       # Number of integer instructions (Count)
system.cpu0.commitStats0.numLoadInsts           11914                       # Number of load instructions (Count)
system.cpu0.commitStats0.numStoreInsts          12552                       # Number of store instructions (Count)
system.cpu0.commitStats0.numVecInsts                0                       # Number of vector instructions (Count)
system.cpu0.commitStats0.committedInstType::No_OpClass          208      0.08%      0.08% # Class of committed instruction. (Count)
system.cpu0.commitStats0.committedInstType::IntAlu       246511     90.71%     90.78% # Class of committed instruction. (Count)
system.cpu0.commitStats0.committedInstType::IntMult           12      0.00%     90.79% # Class of committed instruction. (Count)
system.cpu0.commitStats0.committedInstType::IntDiv           21      0.01%     90.79% # Class of committed instruction. (Count)
system.cpu0.commitStats0.committedInstType::FloatAdd          172      0.06%     90.86% # Class of committed instruction. (Count)
system.cpu0.commitStats0.committedInstType::FloatCmp            0      0.00%     90.86% # Class of committed instruction. (Count)
system.cpu0.commitStats0.committedInstType::FloatCvt            0      0.00%     90.86% # Class of committed instruction. (Count)
system.cpu0.commitStats0.committedInstType::FloatMult            0      0.00%     90.86% # Class of committed instruction. (Count)
system.cpu0.commitStats0.committedInstType::FloatMultAcc            0      0.00%     90.86% # Class of committed instruction. (Count)
system.cpu0.commitStats0.committedInstType::FloatDiv            0      0.00%     90.86% # Class of committed instruction. (Count)
system.cpu0.commitStats0.committedInstType::FloatMisc            0      0.00%     90.86% # Class of committed instruction. (Count)
system.cpu0.commitStats0.committedInstType::FloatSqrt            0      0.00%     90.86% # Class of committed instruction. (Count)
system.cpu0.commitStats0.committedInstType::SimdAdd            8      0.00%     90.86% # Class of committed instruction. (Count)
system.cpu0.commitStats0.committedInstType::SimdAddAcc            0      0.00%     90.86% # Class of committed instruction. (Count)
system.cpu0.commitStats0.committedInstType::SimdAlu           96      0.04%     90.90% # Class of committed instruction. (Count)
system.cpu0.commitStats0.committedInstType::SimdCmp            0      0.00%     90.90% # Class of committed instruction. (Count)
system.cpu0.commitStats0.committedInstType::SimdCvt           48      0.02%     90.91% # Class of committed instruction. (Count)
system.cpu0.commitStats0.committedInstType::SimdMisc          229      0.08%     91.00% # Class of committed instruction. (Count)
system.cpu0.commitStats0.committedInstType::SimdMult            0      0.00%     91.00% # Class of committed instruction. (Count)
system.cpu0.commitStats0.committedInstType::SimdMultAcc            0      0.00%     91.00% # Class of committed instruction. (Count)
system.cpu0.commitStats0.committedInstType::SimdMatMultAcc            0      0.00%     91.00% # Class of committed instruction. (Count)
system.cpu0.commitStats0.committedInstType::SimdShift            0      0.00%     91.00% # Class of committed instruction. (Count)
system.cpu0.commitStats0.committedInstType::SimdShiftAcc            0      0.00%     91.00% # Class of committed instruction. (Count)
system.cpu0.commitStats0.committedInstType::SimdDiv            0      0.00%     91.00% # Class of committed instruction. (Count)
system.cpu0.commitStats0.committedInstType::SimdSqrt            0      0.00%     91.00% # Class of committed instruction. (Count)
system.cpu0.commitStats0.committedInstType::SimdFloatAdd            0      0.00%     91.00% # Class of committed instruction. (Count)
system.cpu0.commitStats0.committedInstType::SimdFloatAlu            0      0.00%     91.00% # Class of committed instruction. (Count)
system.cpu0.commitStats0.committedInstType::SimdFloatCmp            0      0.00%     91.00% # Class of committed instruction. (Count)
system.cpu0.commitStats0.committedInstType::SimdFloatCvt            0      0.00%     91.00% # Class of committed instruction. (Count)
system.cpu0.commitStats0.committedInstType::SimdFloatDiv            0      0.00%     91.00% # Class of committed instruction. (Count)
system.cpu0.commitStats0.committedInstType::SimdFloatMisc            0      0.00%     91.00% # Class of committed instruction. (Count)
system.cpu0.commitStats0.committedInstType::SimdFloatMult            0      0.00%     91.00% # Class of committed instruction. (Count)
system.cpu0.commitStats0.committedInstType::SimdFloatMultAcc            0      0.00%     91.00% # Class of committed instruction. (Count)
system.cpu0.commitStats0.committedInstType::SimdFloatMatMultAcc            0      0.00%     91.00% # Class of committed instruction. (Count)
system.cpu0.commitStats0.committedInstType::SimdFloatSqrt            0      0.00%     91.00% # Class of committed instruction. (Count)
system.cpu0.commitStats0.committedInstType::SimdReduceAdd            0      0.00%     91.00% # Class of committed instruction. (Count)
system.cpu0.commitStats0.committedInstType::SimdReduceAlu            0      0.00%     91.00% # Class of committed instruction. (Count)
system.cpu0.commitStats0.committedInstType::SimdReduceCmp            0      0.00%     91.00% # Class of committed instruction. (Count)
system.cpu0.commitStats0.committedInstType::SimdFloatReduceAdd            0      0.00%     91.00% # Class of committed instruction. (Count)
system.cpu0.commitStats0.committedInstType::SimdFloatReduceCmp            0      0.00%     91.00% # Class of committed instruction. (Count)
system.cpu0.commitStats0.committedInstType::SimdAes            0      0.00%     91.00% # Class of committed instruction. (Count)
system.cpu0.commitStats0.committedInstType::SimdAesMix            0      0.00%     91.00% # Class of committed instruction. (Count)
system.cpu0.commitStats0.committedInstType::SimdSha1Hash            0      0.00%     91.00% # Class of committed instruction. (Count)
system.cpu0.commitStats0.committedInstType::SimdSha1Hash2            0      0.00%     91.00% # Class of committed instruction. (Count)
system.cpu0.commitStats0.committedInstType::SimdSha256Hash            0      0.00%     91.00% # Class of committed instruction. (Count)
system.cpu0.commitStats0.committedInstType::SimdSha256Hash2            0      0.00%     91.00% # Class of committed instruction. (Count)
system.cpu0.commitStats0.committedInstType::SimdShaSigma2            0      0.00%     91.00% # Class of committed instruction. (Count)
system.cpu0.commitStats0.committedInstType::SimdShaSigma3            0      0.00%     91.00% # Class of committed instruction. (Count)
system.cpu0.commitStats0.committedInstType::SimdPredAlu            0      0.00%     91.00% # Class of committed instruction. (Count)
system.cpu0.commitStats0.committedInstType::Matrix            0      0.00%     91.00% # Class of committed instruction. (Count)
system.cpu0.commitStats0.committedInstType::MatrixMov            0      0.00%     91.00% # Class of committed instruction. (Count)
system.cpu0.commitStats0.committedInstType::MatrixOP            0      0.00%     91.00% # Class of committed instruction. (Count)
system.cpu0.commitStats0.committedInstType::MemRead        11793      4.34%     95.34% # Class of committed instruction. (Count)
system.cpu0.commitStats0.committedInstType::MemWrite        12029      4.43%     99.76% # Class of committed instruction. (Count)
system.cpu0.commitStats0.committedInstType::FloatMemRead          121      0.04%     99.81% # Class of committed instruction. (Count)
system.cpu0.commitStats0.committedInstType::FloatMemWrite          523      0.19%    100.00% # Class of committed instruction. (Count)
system.cpu0.commitStats0.committedInstType::IprAccess            0      0.00%    100.00% # Class of committed instruction. (Count)
system.cpu0.commitStats0.committedInstType::InstPrefetch            0      0.00%    100.00% # Class of committed instruction. (Count)
system.cpu0.commitStats0.committedInstType::SimdUnitStrideLoad            0      0.00%    100.00% # Class of committed instruction. (Count)
system.cpu0.commitStats0.committedInstType::SimdUnitStrideStore            0      0.00%    100.00% # Class of committed instruction. (Count)
system.cpu0.commitStats0.committedInstType::SimdUnitStrideMaskLoad            0      0.00%    100.00% # Class of committed instruction. (Count)
system.cpu0.commitStats0.committedInstType::SimdUnitStrideMaskStore            0      0.00%    100.00% # Class of committed instruction. (Count)
system.cpu0.commitStats0.committedInstType::SimdStridedLoad            0      0.00%    100.00% # Class of committed instruction. (Count)
system.cpu0.commitStats0.committedInstType::SimdStridedStore            0      0.00%    100.00% # Class of committed instruction. (Count)
system.cpu0.commitStats0.committedInstType::SimdIndexedLoad            0      0.00%    100.00% # Class of committed instruction. (Count)
system.cpu0.commitStats0.committedInstType::SimdIndexedStore            0      0.00%    100.00% # Class of committed instruction. (Count)
system.cpu0.commitStats0.committedInstType::SimdWholeRegisterLoad            0      0.00%    100.00% # Class of committed instruction. (Count)
system.cpu0.commitStats0.committedInstType::SimdWholeRegisterStore            0      0.00%    100.00% # Class of committed instruction. (Count)
system.cpu0.commitStats0.committedInstType::SimdUnitStrideFaultOnlyFirstLoad            0      0.00%    100.00% # Class of committed instruction. (Count)
system.cpu0.commitStats0.committedInstType::SimdUnitStrideSegmentedLoad            0      0.00%    100.00% # Class of committed instruction. (Count)
system.cpu0.commitStats0.committedInstType::SimdUnitStrideSegmentedStore            0      0.00%    100.00% # Class of committed instruction. (Count)
system.cpu0.commitStats0.committedInstType::SimdUnitStrideSegmentedFaultOnlyFirstLoad            0      0.00%    100.00% # Class of committed instruction. (Count)
system.cpu0.commitStats0.committedInstType::SimdStrideSegmentedLoad            0      0.00%    100.00% # Class of committed instruction. (Count)
system.cpu0.commitStats0.committedInstType::SimdStrideSegmentedStore            0      0.00%    100.00% # Class of committed instruction. (Count)
system.cpu0.commitStats0.committedInstType::SimdExt            0      0.00%    100.00% # Class of committed instruction. (Count)
system.cpu0.commitStats0.committedInstType::SimdFloatExt            0      0.00%    100.00% # Class of committed instruction. (Count)
system.cpu0.commitStats0.committedInstType::SimdConfig            0      0.00%    100.00% # Class of committed instruction. (Count)
system.cpu0.commitStats0.committedInstType::total       271771                       # Class of committed instruction. (Count)
system.cpu0.commitStats0.committedControl::IsControl        52147                       # Class of control type instructions committed (Count)
system.cpu0.commitStats0.committedControl::IsDirectControl        51899                       # Class of control type instructions committed (Count)
system.cpu0.commitStats0.committedControl::IsIndirectControl          248                       # Class of control type instructions committed (Count)
system.cpu0.commitStats0.committedControl::IsCondControl        41610                       # Class of control type instructions committed (Count)
system.cpu0.commitStats0.committedControl::IsUncondControl        10537                       # Class of control type instructions committed (Count)
system.cpu0.commitStats0.committedControl::IsCall          180                       # Class of control type instructions committed (Count)
system.cpu0.commitStats0.committedControl::IsReturn          175                       # Class of control type instructions committed (Count)
system.cpu0.exec_context.thread_0.numMatAluAccesses            0                       # Number of matrix alu accesses (Count)
system.cpu0.exec_context.thread_0.numCallsReturns          355                       # Number of times a function call or return occured (Count)
system.cpu0.exec_context.thread_0.numMatInsts            0                       # Number of matrix instructions (Count)
system.cpu0.exec_context.thread_0.numIdleCycles     0.002000                       # Number of idle cycles (Cycle)
system.cpu0.exec_context.thread_0.numBusyCycles 970535.998000                       # Number of busy cycles (Cycle)
system.cpu0.exec_context.thread_0.notIdleFraction     1.000000                       # Percentage of non-idle cycles (Ratio)
system.cpu0.exec_context.thread_0.idleFraction     0.000000                       # Percentage of idle cycles (Ratio)
system.cpu0.executeStats0.numInsts                  0                       # Number of executed instructions (Count)
system.cpu0.executeStats0.numNop                    0                       # Number of nop insts executed (Count)
system.cpu0.executeStats0.numBranches               0                       # Number of branches executed (Count)
system.cpu0.executeStats0.numLoadInsts              0                       # Number of load instructions executed (Count)
system.cpu0.executeStats0.numStoreInsts         24466                       # Number of stores executed (Count)
system.cpu0.executeStats0.instRate                  0                       # Inst execution rate ((Count/Cycle))
system.cpu0.executeStats0.numFpAluAccesses         1354                       # Number of float alu accesses (Count)
system.cpu0.executeStats0.numFpRegReads          1462                       # Number of times the floating registers were read (Count)
system.cpu0.executeStats0.numFpRegWrites          785                       # Number of times the floating registers were written (Count)
system.cpu0.executeStats0.numIntAluAccesses       270911                       # Number of integer alu accesses (Count)
system.cpu0.executeStats0.numIntRegReads       283527                       # Number of times the integer registers were read (Count)
system.cpu0.executeStats0.numIntRegWrites       164632                       # Number of times the integer registers were written (Count)
system.cpu0.executeStats0.numMemRefs            24466                       # Number of memory refs (Count)
system.cpu0.executeStats0.numMiscRegReads       128975                       # Number of times the Misc registers were read (Count)
system.cpu0.executeStats0.numVecAluAccesses            0                       # Number of vector alu accesses (Count)
system.cpu0.executeStats0.numDiscardedOps            0                       # Number of ops (including micro ops) which were discarded before commit (Count)
system.cpu0.fetchStats0.numInsts               141505                       # Number of instructions fetched (thread level) (Count)
system.cpu0.fetchStats0.numOps                 271771                       # Number of ops (including micro ops) fetched (thread level) (Count)
system.cpu0.fetchStats0.fetchRate            0.145801                       # Number of inst fetches per cycle ((Count/Cycle))
system.cpu0.fetchStats0.numBranches             52147                       # Number of branches fetched (Count)
system.cpu0.fetchStats0.branchRate           0.053730                       # Number of branch fetches per cycle (Ratio)
system.cpu0.fetchStats0.numFetchSuspends            0                       # Number of times Execute suspended instruction fetching (Count)
system.cpu0.interrupts.clk_domain.clock          8000                       # Clock period in ticks (Tick)
system.cpu0.mmu.dtb.rdAccesses                  11918                       # TLB accesses on read requests (Count)
system.cpu0.mmu.dtb.wrAccesses                  12552                       # TLB accesses on write requests (Count)
system.cpu0.mmu.dtb.rdMisses                       15                       # TLB misses on read requests (Count)
system.cpu0.mmu.dtb.wrMisses                       11                       # TLB misses on write requests (Count)
system.cpu0.mmu.dtb.walker.power_state.pwrStateResidencyTicks::UNDEFINED    485268000                       # Cumulative time (in ticks) in various power states (Tick)
system.cpu0.mmu.itb.rdAccesses                      0                       # TLB accesses on read requests (Count)
system.cpu0.mmu.itb.wrAccesses                 205891                       # TLB accesses on write requests (Count)
system.cpu0.mmu.itb.rdMisses                        0                       # TLB misses on read requests (Count)
system.cpu0.mmu.itb.wrMisses                       46                       # TLB misses on write requests (Count)
system.cpu0.mmu.itb.walker.power_state.pwrStateResidencyTicks::UNDEFINED    485268000                       # Cumulative time (in ticks) in various power states (Tick)
system.cpu0.power_state.pwrStateResidencyTicks::ON    485268000                       # Cumulative time (in ticks) in various power states (Tick)
system.cpu0.thread_0.numInsts                       0                       # Number of Instructions committed (Count)
system.cpu0.thread_0.numOps                         0                       # Number of Ops committed (Count)
system.cpu0.thread_0.numMemRefs                     0                       # Number of Memory References (Count)
system.cpu0.workload.numSyscalls                   15                       # Number of system calls (Count)
system.cpu1.numCycles                          970517                       # Number of cpu cycles simulated (Cycle)
system.cpu1.cpi                              6.702882                       # CPI: cycles per instruction (core level) ((Cycle/Count))
system.cpu1.ipc                              0.149190                       # IPC: instructions per cycle (core level) ((Count/Cycle))
system.cpu1.numWorkItemsStarted                     0                       # Number of work items this cpu started (Count)
system.cpu1.numWorkItemsCompleted                   0                       # Number of work items this cpu completed (Count)
system.cpu1.commitStats0.numInsts              144791                       # Number of instructions committed (thread level) (Count)
system.cpu1.commitStats0.numOps                280365                       # Number of ops (including micro ops) committed (thread level) (Count)
system.cpu1.commitStats0.numInstsNotNOP             0                       # Number of instructions committed excluding NOPs or prefetches (Count)
system.cpu1.commitStats0.numOpsNotNOP               0                       # Number of Ops (including micro ops) Simulated (Count)
system.cpu1.commitStats0.cpi                 6.702882                       # CPI: cycles per instruction (thread level) ((Cycle/Count))
system.cpu1.commitStats0.ipc                 0.149190                       # IPC: instructions per cycle (thread level) ((Count/Cycle))
system.cpu1.commitStats0.numMemRefs                 0                       # Number of memory references committed (Count)
system.cpu1.commitStats0.numFpInsts              1354                       # Number of float instructions (Count)
system.cpu1.commitStats0.numIntInsts           279505                       # Number of integer instructions (Count)
system.cpu1.commitStats0.numLoadInsts           13485                       # Number of load instructions (Count)
system.cpu1.commitStats0.numStoreInsts          11895                       # Number of store instructions (Count)
system.cpu1.commitStats0.numVecInsts                0                       # Number of vector instructions (Count)
system.cpu1.commitStats0.committedInstType::No_OpClass          209      0.07%      0.07% # Class of committed instruction. (Count)
system.cpu1.commitStats0.committedInstType::IntAlu       254190     90.66%     90.74% # Class of committed instruction. (Count)
system.cpu1.commitStats0.committedInstType::IntMult           12      0.00%     90.74% # Class of committed instruction. (Count)
system.cpu1.commitStats0.committedInstType::IntDiv           21      0.01%     90.75% # Class of committed instruction. (Count)
system.cpu1.commitStats0.committedInstType::FloatAdd          172      0.06%     90.81% # Class of committed instruction. (Count)
system.cpu1.commitStats0.committedInstType::FloatCmp            0      0.00%     90.81% # Class of committed instruction. (Count)
system.cpu1.commitStats0.committedInstType::FloatCvt            0      0.00%     90.81% # Class of committed instruction. (Count)
system.cpu1.commitStats0.committedInstType::FloatMult            0      0.00%     90.81% # Class of committed instruction. (Count)
system.cpu1.commitStats0.committedInstType::FloatMultAcc            0      0.00%     90.81% # Class of committed instruction. (Count)
system.cpu1.commitStats0.committedInstType::FloatDiv            0      0.00%     90.81% # Class of committed instruction. (Count)
system.cpu1.commitStats0.committedInstType::FloatMisc            0      0.00%     90.81% # Class of committed instruction. (Count)
system.cpu1.commitStats0.committedInstType::FloatSqrt            0      0.00%     90.81% # Class of committed instruction. (Count)
system.cpu1.commitStats0.committedInstType::SimdAdd            8      0.00%     90.81% # Class of committed instruction. (Count)
system.cpu1.commitStats0.committedInstType::SimdAddAcc            0      0.00%     90.81% # Class of committed instruction. (Count)
system.cpu1.commitStats0.committedInstType::SimdAlu           96      0.03%     90.85% # Class of committed instruction. (Count)
system.cpu1.commitStats0.committedInstType::SimdCmp            0      0.00%     90.85% # Class of committed instruction. (Count)
system.cpu1.commitStats0.committedInstType::SimdCvt           48      0.02%     90.87% # Class of committed instruction. (Count)
system.cpu1.commitStats0.committedInstType::SimdMisc          229      0.08%     90.95% # Class of committed instruction. (Count)
system.cpu1.commitStats0.committedInstType::SimdMult            0      0.00%     90.95% # Class of committed instruction. (Count)
system.cpu1.commitStats0.committedInstType::SimdMultAcc            0      0.00%     90.95% # Class of committed instruction. (Count)
system.cpu1.commitStats0.committedInstType::SimdMatMultAcc            0      0.00%     90.95% # Class of committed instruction. (Count)
system.cpu1.commitStats0.committedInstType::SimdShift            0      0.00%     90.95% # Class of committed instruction. (Count)
system.cpu1.commitStats0.committedInstType::SimdShiftAcc            0      0.00%     90.95% # Class of committed instruction. (Count)
system.cpu1.commitStats0.committedInstType::SimdDiv            0      0.00%     90.95% # Class of committed instruction. (Count)
system.cpu1.commitStats0.committedInstType::SimdSqrt            0      0.00%     90.95% # Class of committed instruction. (Count)
system.cpu1.commitStats0.committedInstType::SimdFloatAdd            0      0.00%     90.95% # Class of committed instruction. (Count)
system.cpu1.commitStats0.committedInstType::SimdFloatAlu            0      0.00%     90.95% # Class of committed instruction. (Count)
system.cpu1.commitStats0.committedInstType::SimdFloatCmp            0      0.00%     90.95% # Class of committed instruction. (Count)
system.cpu1.commitStats0.committedInstType::SimdFloatCvt            0      0.00%     90.95% # Class of committed instruction. (Count)
system.cpu1.commitStats0.committedInstType::SimdFloatDiv            0      0.00%     90.95% # Class of committed instruction. (Count)
system.cpu1.commitStats0.committedInstType::SimdFloatMisc            0      0.00%     90.95% # Class of committed instruction. (Count)
system.cpu1.commitStats0.committedInstType::SimdFloatMult            0      0.00%     90.95% # Class of committed instruction. (Count)
system.cpu1.commitStats0.committedInstType::SimdFloatMultAcc            0      0.00%     90.95% # Class of committed instruction. (Count)
system.cpu1.commitStats0.committedInstType::SimdFloatMatMultAcc            0      0.00%     90.95% # Class of committed instruction. (Count)
system.cpu1.commitStats0.committedInstType::SimdFloatSqrt            0      0.00%     90.95% # Class of committed instruction. (Count)
system.cpu1.commitStats0.committedInstType::SimdReduceAdd            0      0.00%     90.95% # Class of committed instruction. (Count)
system.cpu1.commitStats0.committedInstType::SimdReduceAlu            0      0.00%     90.95% # Class of committed instruction. (Count)
system.cpu1.commitStats0.committedInstType::SimdReduceCmp            0      0.00%     90.95% # Class of committed instruction. (Count)
system.cpu1.commitStats0.committedInstType::SimdFloatReduceAdd            0      0.00%     90.95% # Class of committed instruction. (Count)
system.cpu1.commitStats0.committedInstType::SimdFloatReduceCmp            0      0.00%     90.95% # Class of committed instruction. (Count)
system.cpu1.commitStats0.committedInstType::SimdAes            0      0.00%     90.95% # Class of committed instruction. (Count)
system.cpu1.commitStats0.committedInstType::SimdAesMix            0      0.00%     90.95% # Class of committed instruction. (Count)
system.cpu1.commitStats0.committedInstType::SimdSha1Hash            0      0.00%     90.95% # Class of committed instruction. (Count)
system.cpu1.commitStats0.committedInstType::SimdSha1Hash2            0      0.00%     90.95% # Class of committed instruction. (Count)
system.cpu1.commitStats0.committedInstType::SimdSha256Hash            0      0.00%     90.95% # Class of committed instruction. (Count)
system.cpu1.commitStats0.committedInstType::SimdSha256Hash2            0      0.00%     90.95% # Class of committed instruction. (Count)
system.cpu1.commitStats0.committedInstType::SimdShaSigma2            0      0.00%     90.95% # Class of committed instruction. (Count)
system.cpu1.commitStats0.committedInstType::SimdShaSigma3            0      0.00%     90.95% # Class of committed instruction. (Count)
system.cpu1.commitStats0.committedInstType::SimdPredAlu            0      0.00%     90.95% # Class of committed instruction. (Count)
system.cpu1.commitStats0.committedInstType::Matrix            0      0.00%     90.95% # Class of committed instruction. (Count)
system.cpu1.commitStats0.committedInstType::MatrixMov            0      0.00%     90.95% # Class of committed instruction. (Count)
system.cpu1.commitStats0.committedInstType::MatrixOP            0      0.00%     90.95% # Class of committed instruction. (Count)
system.cpu1.commitStats0.committedInstType::MemRead        13364      4.77%     95.71% # Class of committed instruction. (Count)
system.cpu1.commitStats0.committedInstType::MemWrite        11372      4.06%     99.77% # Class of committed instruction. (Count)
system.cpu1.commitStats0.committedInstType::FloatMemRead          121      0.04%     99.81% # Class of committed instruction. (Count)
system.cpu1.commitStats0.committedInstType::FloatMemWrite          523      0.19%    100.00% # Class of committed instruction. (Count)
system.cpu1.commitStats0.committedInstType::IprAccess            0      0.00%    100.00% # Class of committed instruction. (Count)
system.cpu1.commitStats0.committedInstType::InstPrefetch            0      0.00%    100.00% # Class of committed instruction. (Count)
system.cpu1.commitStats0.committedInstType::SimdUnitStrideLoad            0      0.00%    100.00% # Class of committed instruction. (Count)
system.cpu1.commitStats0.committedInstType::SimdUnitStrideStore            0      0.00%    100.00% # Class of committed instruction. (Count)
system.cpu1.commitStats0.committedInstType::SimdUnitStrideMaskLoad            0      0.00%    100.00% # Class of committed instruction. (Count)
system.cpu1.commitStats0.committedInstType::SimdUnitStrideMaskStore            0      0.00%    100.00% # Class of committed instruction. (Count)
system.cpu1.commitStats0.committedInstType::SimdStridedLoad            0      0.00%    100.00% # Class of committed instruction. (Count)
system.cpu1.commitStats0.committedInstType::SimdStridedStore            0      0.00%    100.00% # Class of committed instruction. (Count)
system.cpu1.commitStats0.committedInstType::SimdIndexedLoad            0      0.00%    100.00% # Class of committed instruction. (Count)
system.cpu1.commitStats0.committedInstType::SimdIndexedStore            0      0.00%    100.00% # Class of committed instruction. (Count)
system.cpu1.commitStats0.committedInstType::SimdWholeRegisterLoad            0      0.00%    100.00% # Class of committed instruction. (Count)
system.cpu1.commitStats0.committedInstType::SimdWholeRegisterStore            0      0.00%    100.00% # Class of committed instruction. (Count)
system.cpu1.commitStats0.committedInstType::SimdUnitStrideFaultOnlyFirstLoad            0      0.00%    100.00% # Class of committed instruction. (Count)
system.cpu1.commitStats0.committedInstType::SimdUnitStrideSegmentedLoad            0      0.00%    100.00% # Class of committed instruction. (Count)
system.cpu1.commitStats0.committedInstType::SimdUnitStrideSegmentedStore            0      0.00%    100.00% # Class of committed instruction. (Count)
system.cpu1.commitStats0.committedInstType::SimdUnitStrideSegmentedFaultOnlyFirstLoad            0      0.00%    100.00% # Class of committed instruction. (Count)
system.cpu1.commitStats0.committedInstType::SimdStrideSegmentedLoad            0      0.00%    100.00% # Class of committed instruction. (Count)
system.cpu1.commitStats0.committedInstType::SimdStrideSegmentedStore            0      0.00%    100.00% # Class of committed instruction. (Count)
system.cpu1.commitStats0.committedInstType::SimdExt            0      0.00%    100.00% # Class of committed instruction. (Count)
system.cpu1.commitStats0.committedInstType::SimdFloatExt            0      0.00%    100.00% # Class of committed instruction. (Count)
system.cpu1.commitStats0.committedInstType::SimdConfig            0      0.00%    100.00% # Class of committed instruction. (Count)
system.cpu1.commitStats0.committedInstType::total       280365                       # Class of committed instruction. (Count)
system.cpu1.commitStats0.committedControl::IsControl        53655                       # Class of control type instructions committed (Count)
system.cpu1.commitStats0.committedControl::IsDirectControl        53407                       # Class of control type instructions committed (Count)
system.cpu1.commitStats0.committedControl::IsIndirectControl          248                       # Class of control type instructions committed (Count)
system.cpu1.commitStats0.committedControl::IsCondControl        43119                       # Class of control type instructions committed (Count)
system.cpu1.commitStats0.committedControl::IsUncondControl        10536                       # Class of control type instructions committed (Count)
system.cpu1.commitStats0.committedControl::IsCall          180                       # Class of control type instructions committed (Count)
system.cpu1.commitStats0.committedControl::IsReturn          175                       # Class of control type instructions committed (Count)
system.cpu1.exec_context.thread_0.numMatAluAccesses            0                       # Number of matrix alu accesses (Count)
system.cpu1.exec_context.thread_0.numCallsReturns          355                       # Number of times a function call or return occured (Count)
system.cpu1.exec_context.thread_0.numMatInsts            0                       # Number of matrix instructions (Count)
system.cpu1.exec_context.thread_0.numIdleCycles    19.001628                       # Number of idle cycles (Cycle)
system.cpu1.exec_context.thread_0.numBusyCycles 970497.998372                       # Number of busy cycles (Cycle)
system.cpu1.exec_context.thread_0.notIdleFraction     0.999980                       # Percentage of non-idle cycles (Ratio)
system.cpu1.exec_context.thread_0.idleFraction     0.000020                       # Percentage of idle cycles (Ratio)
system.cpu1.executeStats0.numInsts                  0                       # Number of executed instructions (Count)
system.cpu1.executeStats0.numNop                    0                       # Number of nop insts executed (Count)
system.cpu1.executeStats0.numBranches               0                       # Number of branches executed (Count)
system.cpu1.executeStats0.numLoadInsts              0                       # Number of load instructions executed (Count)
system.cpu1.executeStats0.numStoreInsts         25380                       # Number of stores executed (Count)
system.cpu1.executeStats0.instRate                  0                       # Inst execution rate ((Count/Cycle))
system.cpu1.executeStats0.numFpAluAccesses         1354                       # Number of float alu accesses (Count)
system.cpu1.executeStats0.numFpRegReads          1462                       # Number of times the floating registers were read (Count)
system.cpu1.executeStats0.numFpRegWrites          785                       # Number of times the floating registers were written (Count)
system.cpu1.executeStats0.numIntAluAccesses       279505                       # Number of integer alu accesses (Count)
system.cpu1.executeStats0.numIntRegReads       288536                       # Number of times the integer registers were read (Count)
system.cpu1.executeStats0.numIntRegWrites       170867                       # Number of times the integer registers were written (Count)
system.cpu1.executeStats0.numMemRefs            25380                       # Number of memory refs (Count)
system.cpu1.executeStats0.numMiscRegReads       132905                       # Number of times the Misc registers were read (Count)
system.cpu1.executeStats0.numVecAluAccesses            0                       # Number of vector alu accesses (Count)
system.cpu1.executeStats0.numDiscardedOps            0                       # Number of ops (including micro ops) which were discarded before commit (Count)
system.cpu1.fetchStats0.numInsts               144791                       # Number of instructions fetched (thread level) (Count)
system.cpu1.fetchStats0.numOps                 280365                       # Number of ops (including micro ops) fetched (thread level) (Count)
system.cpu1.fetchStats0.fetchRate            0.149190                       # Number of inst fetches per cycle ((Count/Cycle))
system.cpu1.fetchStats0.numBranches             53655                       # Number of branches fetched (Count)
system.cpu1.fetchStats0.branchRate           0.055285                       # Number of branch fetches per cycle (Ratio)
system.cpu1.fetchStats0.numFetchSuspends            0                       # Number of times Execute suspended instruction fetching (Count)
system.cpu1.interrupts.clk_domain.clock          8000                       # Clock period in ticks (Tick)
system.cpu1.mmu.dtb.rdAccesses                  13489                       # TLB accesses on read requests (Count)
system.cpu1.mmu.dtb.wrAccesses                  11895                       # TLB accesses on write requests (Count)
system.cpu1.mmu.dtb.rdMisses                       17                       # TLB misses on read requests (Count)
system.cpu1.mmu.dtb.wrMisses                        9                       # TLB misses on write requests (Count)
system.cpu1.mmu.dtb.walker.power_state.pwrStateResidencyTicks::UNDEFINED    485268000                       # Cumulative time (in ticks) in various power states (Tick)
system.cpu1.mmu.itb.rdAccesses                      0                       # TLB accesses on read requests (Count)
system.cpu1.mmu.itb.wrAccesses                 209706                       # TLB accesses on write requests (Count)
system.cpu1.mmu.itb.rdMisses                        0                       # TLB misses on read requests (Count)
system.cpu1.mmu.itb.wrMisses                       46                       # TLB misses on write requests (Count)
system.cpu1.mmu.itb.walker.power_state.pwrStateResidencyTicks::UNDEFINED    485268000                       # Cumulative time (in ticks) in various power states (Tick)
system.cpu1.power_state.pwrStateResidencyTicks::ON    485268000                       # Cumulative time (in ticks) in various power states (Tick)
system.cpu1.thread_0.numInsts                       0                       # Number of Instructions committed (Count)
system.cpu1.thread_0.numOps                         0                       # Number of Ops committed (Count)
system.cpu1.thread_0.numMemRefs                     0                       # Number of Memory References (Count)
system.cpu1.workload.numSyscalls                   15                       # Number of system calls (Count)
system.cpu_clk_domain.clock                       500                       # Clock period in ticks (Tick)
system.cpu_voltage_domain.voltage                   1                       # Voltage in Volts (Volt)
system.mem_ctrls.avgPriority_ruby.dir_cntrl0::samples      1681.00                       # Average QoS priority value for accepted requests (Count)
system.mem_ctrls.priorityMinLatency      0.000000018750                       # per QoS priority minimum request to response latency (Second)
system.mem_ctrls.priorityMaxLatency      0.000000578500                       # per QoS priority maximum request to response latency (Second)
system.mem_ctrls.numReadWriteTurnArounds            0                       # Number of turnarounds from READ to WRITE (Count)
system.mem_ctrls.numWriteReadTurnArounds            0                       # Number of turnarounds from WRITE to READ (Count)
system.mem_ctrls.numStayReadState                3469                       # Number of times bus staying in READ state (Count)
system.mem_ctrls.numStayWriteState                  0                       # Number of times bus staying in WRITE state (Count)
system.mem_ctrls.readReqs                        1681                       # Number of read requests accepted (Count)
system.mem_ctrls.writeReqs                          0                       # Number of write requests accepted (Count)
system.mem_ctrls.readBursts                      1681                       # Number of controller read bursts, including those serviced by the write queue (Count)
system.mem_ctrls.writeBursts                        0                       # Number of controller write bursts, including those merged in the write queue (Count)
system.mem_ctrls.servicedByWrQ                      0                       # Number of controller read bursts serviced by the write queue (Count)
system.mem_ctrls.mergedWrBursts                     0                       # Number of controller write bursts merged with an existing one (Count)
system.mem_ctrls.neitherReadNorWriteReqs            0                       # Number of requests that are neither read nor write (Count)
system.mem_ctrls.avgRdQLen                       1.07                       # Average read queue length when enqueuing ((Count/Tick))
system.mem_ctrls.avgWrQLen                       0.00                       # Average write queue length when enqueuing ((Count/Tick))
system.mem_ctrls.numRdRetry                         0                       # Number of times read queue was full causing retry (Count)
system.mem_ctrls.numWrRetry                         0                       # Number of times write queue was full causing retry (Count)
system.mem_ctrls.readPktSize::0                     0                       # Read request sizes (log2) (Count)
system.mem_ctrls.readPktSize::1                     0                       # Read request sizes (log2) (Count)
system.mem_ctrls.readPktSize::2                     0                       # Read request sizes (log2) (Count)
system.mem_ctrls.readPktSize::3                     0                       # Read request sizes (log2) (Count)
system.mem_ctrls.readPktSize::4                     0                       # Read request sizes (log2) (Count)
system.mem_ctrls.readPktSize::5                     0                       # Read request sizes (log2) (Count)
system.mem_ctrls.readPktSize::6                  1681                       # Read request sizes (log2) (Count)
system.mem_ctrls.writePktSize::0                    0                       # Write request sizes (log2) (Count)
system.mem_ctrls.writePktSize::1                    0                       # Write request sizes (log2) (Count)
system.mem_ctrls.writePktSize::2                    0                       # Write request sizes (log2) (Count)
system.mem_ctrls.writePktSize::3                    0                       # Write request sizes (log2) (Count)
system.mem_ctrls.writePktSize::4                    0                       # Write request sizes (log2) (Count)
system.mem_ctrls.writePktSize::5                    0                       # Write request sizes (log2) (Count)
system.mem_ctrls.writePktSize::6                    0                       # Write request sizes (log2) (Count)
system.mem_ctrls.rdQLenPdf::0                    1150                       # What read queue length does an incoming req see (Count)
system.mem_ctrls.rdQLenPdf::1                     529                       # What read queue length does an incoming req see (Count)
system.mem_ctrls.rdQLenPdf::2                       2                       # What read queue length does an incoming req see (Count)
system.mem_ctrls.rdQLenPdf::3                       0                       # What read queue length does an incoming req see (Count)
system.mem_ctrls.rdQLenPdf::4                       0                       # What read queue length does an incoming req see (Count)
system.mem_ctrls.rdQLenPdf::5                       0                       # What read queue length does an incoming req see (Count)
system.mem_ctrls.rdQLenPdf::6                       0                       # What read queue length does an incoming req see (Count)
system.mem_ctrls.rdQLenPdf::7                       0                       # What read queue length does an incoming req see (Count)
system.mem_ctrls.rdQLenPdf::8                       0                       # What read queue length does an incoming req see (Count)
system.mem_ctrls.rdQLenPdf::9                       0                       # What read queue length does an incoming req see (Count)
system.mem_ctrls.rdQLenPdf::10                      0                       # What read queue length does an incoming req see (Count)
system.mem_ctrls.rdQLenPdf::11                      0                       # What read queue length does an incoming req see (Count)
system.mem_ctrls.rdQLenPdf::12                      0                       # What read queue length does an incoming req see (Count)
system.mem_ctrls.rdQLenPdf::13                      0                       # What read queue length does an incoming req see (Count)
system.mem_ctrls.rdQLenPdf::14                      0                       # What read queue length does an incoming req see (Count)
system.mem_ctrls.rdQLenPdf::15                      0                       # What read queue length does an incoming req see (Count)
system.mem_ctrls.rdQLenPdf::16                      0                       # What read queue length does an incoming req see (Count)
system.mem_ctrls.rdQLenPdf::17                      0                       # What read queue length does an incoming req see (Count)
system.mem_ctrls.rdQLenPdf::18                      0                       # What read queue length does an incoming req see (Count)
system.mem_ctrls.rdQLenPdf::19                      0                       # What read queue length does an incoming req see (Count)
system.mem_ctrls.rdQLenPdf::20                      0                       # What read queue length does an incoming req see (Count)
system.mem_ctrls.rdQLenPdf::21                      0                       # What read queue length does an incoming req see (Count)
system.mem_ctrls.rdQLenPdf::22                      0                       # What read queue length does an incoming req see (Count)
system.mem_ctrls.rdQLenPdf::23                      0                       # What read queue length does an incoming req see (Count)
system.mem_ctrls.rdQLenPdf::24                      0                       # What read queue length does an incoming req see (Count)
system.mem_ctrls.rdQLenPdf::25                      0                       # What read queue length does an incoming req see (Count)
system.mem_ctrls.rdQLenPdf::26                      0                       # What read queue length does an incoming req see (Count)
system.mem_ctrls.rdQLenPdf::27                      0                       # What read queue length does an incoming req see (Count)
system.mem_ctrls.rdQLenPdf::28                      0                       # What read queue length does an incoming req see (Count)
system.mem_ctrls.rdQLenPdf::29                      0                       # What read queue length does an incoming req see (Count)
system.mem_ctrls.rdQLenPdf::30                      0                       # What read queue length does an incoming req see (Count)
system.mem_ctrls.rdQLenPdf::31                      0                       # What read queue length does an incoming req see (Count)
system.mem_ctrls.wrQLenPdf::0                       0                       # What write queue length does an incoming req see (Count)
system.mem_ctrls.wrQLenPdf::1                       0                       # What write queue length does an incoming req see (Count)
system.mem_ctrls.wrQLenPdf::2                       0                       # What write queue length does an incoming req see (Count)
system.mem_ctrls.wrQLenPdf::3                       0                       # What write queue length does an incoming req see (Count)
system.mem_ctrls.wrQLenPdf::4                       0                       # What write queue length does an incoming req see (Count)
system.mem_ctrls.wrQLenPdf::5                       0                       # What write queue length does an incoming req see (Count)
system.mem_ctrls.wrQLenPdf::6                       0                       # What write queue length does an incoming req see (Count)
system.mem_ctrls.wrQLenPdf::7                       0                       # What write queue length does an incoming req see (Count)
system.mem_ctrls.wrQLenPdf::8                       0                       # What write queue length does an incoming req see (Count)
system.mem_ctrls.wrQLenPdf::9                       0                       # What write queue length does an incoming req see (Count)
system.mem_ctrls.wrQLenPdf::10                      0                       # What write queue length does an incoming req see (Count)
system.mem_ctrls.wrQLenPdf::11                      0                       # What write queue length does an incoming req see (Count)
system.mem_ctrls.wrQLenPdf::12                      0                       # What write queue length does an incoming req see (Count)
system.mem_ctrls.wrQLenPdf::13                      0                       # What write queue length does an incoming req see (Count)
system.mem_ctrls.wrQLenPdf::14                      0                       # What write queue length does an incoming req see (Count)
system.mem_ctrls.wrQLenPdf::15                      0                       # What write queue length does an incoming req see (Count)
system.mem_ctrls.wrQLenPdf::16                      0                       # What write queue length does an incoming req see (Count)
system.mem_ctrls.wrQLenPdf::17                      0                       # What write queue length does an incoming req see (Count)
system.mem_ctrls.wrQLenPdf::18                      0                       # What write queue length does an incoming req see (Count)
system.mem_ctrls.wrQLenPdf::19                      0                       # What write queue length does an incoming req see (Count)
system.mem_ctrls.wrQLenPdf::20                      0                       # What write queue length does an incoming req see (Count)
system.mem_ctrls.wrQLenPdf::21                      0                       # What write queue length does an incoming req see (Count)
system.mem_ctrls.wrQLenPdf::22                      0                       # What write queue length does an incoming req see (Count)
system.mem_ctrls.wrQLenPdf::23                      0                       # What write queue length does an incoming req see (Count)
system.mem_ctrls.wrQLenPdf::24                      0                       # What write queue length does an incoming req see (Count)
system.mem_ctrls.wrQLenPdf::25                      0                       # What write queue length does an incoming req see (Count)
system.mem_ctrls.wrQLenPdf::26                      0                       # What write queue length does an incoming req see (Count)
system.mem_ctrls.wrQLenPdf::27                      0                       # What write queue length does an incoming req see (Count)
system.mem_ctrls.wrQLenPdf::28                      0                       # What write queue length does an incoming req see (Count)
system.mem_ctrls.wrQLenPdf::29                      0                       # What write queue length does an incoming req see (Count)
system.mem_ctrls.wrQLenPdf::30                      0                       # What write queue length does an incoming req see (Count)
system.mem_ctrls.wrQLenPdf::31                      0                       # What write queue length does an incoming req see (Count)
system.mem_ctrls.wrQLenPdf::32                      0                       # What write queue length does an incoming req see (Count)
system.mem_ctrls.wrQLenPdf::33                      0                       # What write queue length does an incoming req see (Count)
system.mem_ctrls.wrQLenPdf::34                      0                       # What write queue length does an incoming req see (Count)
system.mem_ctrls.wrQLenPdf::35                      0                       # What write queue length does an incoming req see (Count)
system.mem_ctrls.wrQLenPdf::36                      0                       # What write queue length does an incoming req see (Count)
system.mem_ctrls.wrQLenPdf::37                      0                       # What write queue length does an incoming req see (Count)
system.mem_ctrls.wrQLenPdf::38                      0                       # What write queue length does an incoming req see (Count)
system.mem_ctrls.wrQLenPdf::39                      0                       # What write queue length does an incoming req see (Count)
system.mem_ctrls.wrQLenPdf::40                      0                       # What write queue length does an incoming req see (Count)
system.mem_ctrls.wrQLenPdf::41                      0                       # What write queue length does an incoming req see (Count)
system.mem_ctrls.wrQLenPdf::42                      0                       # What write queue length does an incoming req see (Count)
system.mem_ctrls.wrQLenPdf::43                      0                       # What write queue length does an incoming req see (Count)
system.mem_ctrls.wrQLenPdf::44                      0                       # What write queue length does an incoming req see (Count)
system.mem_ctrls.wrQLenPdf::45                      0                       # What write queue length does an incoming req see (Count)
system.mem_ctrls.wrQLenPdf::46                      0                       # What write queue length does an incoming req see (Count)
system.mem_ctrls.wrQLenPdf::47                      0                       # What write queue length does an incoming req see (Count)
system.mem_ctrls.wrQLenPdf::48                      0                       # What write queue length does an incoming req see (Count)
system.mem_ctrls.wrQLenPdf::49                      0                       # What write queue length does an incoming req see (Count)
system.mem_ctrls.wrQLenPdf::50                      0                       # What write queue length does an incoming req see (Count)
system.mem_ctrls.wrQLenPdf::51                      0                       # What write queue length does an incoming req see (Count)
system.mem_ctrls.wrQLenPdf::52                      0                       # What write queue length does an incoming req see (Count)
system.mem_ctrls.wrQLenPdf::53                      0                       # What write queue length does an incoming req see (Count)
system.mem_ctrls.wrQLenPdf::54                      0                       # What write queue length does an incoming req see (Count)
system.mem_ctrls.wrQLenPdf::55                      0                       # What write queue length does an incoming req see (Count)
system.mem_ctrls.wrQLenPdf::56                      0                       # What write queue length does an incoming req see (Count)
system.mem_ctrls.wrQLenPdf::57                      0                       # What write queue length does an incoming req see (Count)
system.mem_ctrls.wrQLenPdf::58                      0                       # What write queue length does an incoming req see (Count)
system.mem_ctrls.wrQLenPdf::59                      0                       # What write queue length does an incoming req see (Count)
system.mem_ctrls.wrQLenPdf::60                      0                       # What write queue length does an incoming req see (Count)
system.mem_ctrls.wrQLenPdf::61                      0                       # What write queue length does an incoming req see (Count)
system.mem_ctrls.wrQLenPdf::62                      0                       # What write queue length does an incoming req see (Count)
system.mem_ctrls.wrQLenPdf::63                      0                       # What write queue length does an incoming req see (Count)
system.mem_ctrls.bytesReadWrQ                       0                       # Total number of bytes read from write queue (Byte)
system.mem_ctrls.bytesReadSys                  107584                       # Total read bytes from the system interface side (Byte)
system.mem_ctrls.bytesWrittenSys                    0                       # Total written bytes from the system interface side (Byte)
system.mem_ctrls.avgRdBWSys              221700173.92451182                       # Average system read bandwidth in Byte/s ((Byte/Second))
system.mem_ctrls.avgWrBWSys                0.00000000                       # Average system write bandwidth in Byte/s ((Byte/Second))
system.mem_ctrls.totGap                     485211000                       # Total gap between requests (Tick)
system.mem_ctrls.avgGap                     288644.26                       # Average gap between requests ((Tick/Count))
system.mem_ctrls.requestorReadBytes::ruby.dir_cntrl0       107584                       # Per-requestor bytes read from memory (Byte)
system.mem_ctrls.requestorReadRate::ruby.dir_cntrl0 221700173.924511820078                       # Per-requestor bytes read from memory rate ((Byte/Second))
system.mem_ctrls.requestorReadAccesses::ruby.dir_cntrl0         1681                       # Per-requestor read serviced memory accesses (Count)
system.mem_ctrls.requestorReadTotalLat::ruby.dir_cntrl0     48047250                       # Per-requestor read total memory access latency (Tick)
system.mem_ctrls.requestorReadAvgLat::ruby.dir_cntrl0     28582.54                       # Per-requestor read average memory access latency ((Tick/Count))
system.mem_ctrls.dram.bytesRead::ruby.dir_cntrl0       107584                       # Number of bytes read from this memory (Byte)
system.mem_ctrls.dram.bytesRead::total         107584                       # Number of bytes read from this memory (Byte)
system.mem_ctrls.dram.numReads::ruby.dir_cntrl0         1681                       # Number of read requests responded to by this memory (Count)
system.mem_ctrls.dram.numReads::total            1681                       # Number of read requests responded to by this memory (Count)
system.mem_ctrls.dram.bwRead::ruby.dir_cntrl0    221700174                       # Total read bandwidth from this memory ((Byte/Second))
system.mem_ctrls.dram.bwRead::total         221700174                       # Total read bandwidth from this memory ((Byte/Second))
system.mem_ctrls.dram.bwTotal::ruby.dir_cntrl0    221700174                       # Total bandwidth to/from this memory ((Byte/Second))
system.mem_ctrls.dram.bwTotal::total        221700174                       # Total bandwidth to/from this memory ((Byte/Second))
system.mem_ctrls.dram.readBursts                 1681                       # Number of DRAM read bursts (Count)
system.mem_ctrls.dram.writeBursts                   0                       # Number of DRAM write bursts (Count)
system.mem_ctrls.dram.perBankRdBursts::0          149                       # Per bank write bursts (Count)
system.mem_ctrls.dram.perBankRdBursts::1          163                       # Per bank write bursts (Count)
system.mem_ctrls.dram.perBankRdBursts::2          123                       # Per bank write bursts (Count)
system.mem_ctrls.dram.perBankRdBursts::3          112                       # Per bank write bursts (Count)
system.mem_ctrls.dram.perBankRdBursts::4           72                       # Per bank write bursts (Count)
system.mem_ctrls.dram.perBankRdBursts::5          111                       # Per bank write bursts (Count)
system.mem_ctrls.dram.perBankRdBursts::6          145                       # Per bank write bursts (Count)
system.mem_ctrls.dram.perBankRdBursts::7           38                       # Per bank write bursts (Count)
system.mem_ctrls.dram.perBankRdBursts::8           65                       # Per bank write bursts (Count)
system.mem_ctrls.dram.perBankRdBursts::9          131                       # Per bank write bursts (Count)
system.mem_ctrls.dram.perBankRdBursts::10           95                       # Per bank write bursts (Count)
system.mem_ctrls.dram.perBankRdBursts::11           61                       # Per bank write bursts (Count)
system.mem_ctrls.dram.perBankRdBursts::12           92                       # Per bank write bursts (Count)
system.mem_ctrls.dram.perBankRdBursts::13          162                       # Per bank write bursts (Count)
system.mem_ctrls.dram.perBankRdBursts::14          115                       # Per bank write bursts (Count)
system.mem_ctrls.dram.perBankRdBursts::15           47                       # Per bank write bursts (Count)
system.mem_ctrls.dram.perBankWrBursts::0            0                       # Per bank write bursts (Count)
system.mem_ctrls.dram.perBankWrBursts::1            0                       # Per bank write bursts (Count)
system.mem_ctrls.dram.perBankWrBursts::2            0                       # Per bank write bursts (Count)
system.mem_ctrls.dram.perBankWrBursts::3            0                       # Per bank write bursts (Count)
system.mem_ctrls.dram.perBankWrBursts::4            0                       # Per bank write bursts (Count)
system.mem_ctrls.dram.perBankWrBursts::5            0                       # Per bank write bursts (Count)
system.mem_ctrls.dram.perBankWrBursts::6            0                       # Per bank write bursts (Count)
system.mem_ctrls.dram.perBankWrBursts::7            0                       # Per bank write bursts (Count)
system.mem_ctrls.dram.perBankWrBursts::8            0                       # Per bank write bursts (Count)
system.mem_ctrls.dram.perBankWrBursts::9            0                       # Per bank write bursts (Count)
system.mem_ctrls.dram.perBankWrBursts::10            0                       # Per bank write bursts (Count)
system.mem_ctrls.dram.perBankWrBursts::11            0                       # Per bank write bursts (Count)
system.mem_ctrls.dram.perBankWrBursts::12            0                       # Per bank write bursts (Count)
system.mem_ctrls.dram.perBankWrBursts::13            0                       # Per bank write bursts (Count)
system.mem_ctrls.dram.perBankWrBursts::14            0                       # Per bank write bursts (Count)
system.mem_ctrls.dram.perBankWrBursts::15            0                       # Per bank write bursts (Count)
system.mem_ctrls.dram.totQLat                16528500                       # Total ticks spent queuing (Tick)
system.mem_ctrls.dram.totBusLat               8405000                       # Total ticks spent in databus transfers (Tick)
system.mem_ctrls.dram.totMemAccLat           48047250                       # Total ticks spent from burst creation until serviced by the DRAM (Tick)
system.mem_ctrls.dram.avgQLat                 9832.54                       # Average queueing delay per DRAM burst ((Tick/Count))
system.mem_ctrls.dram.avgBusLat               5000.00                       # Average bus latency per DRAM burst ((Tick/Count))
system.mem_ctrls.dram.avgMemAccLat           28582.54                       # Average memory access latency per DRAM burst ((Tick/Count))
system.mem_ctrls.dram.readRowHits                1225                       # Number of row buffer hits during reads (Count)
system.mem_ctrls.dram.writeRowHits                  0                       # Number of row buffer hits during writes (Count)
system.mem_ctrls.dram.readRowHitRate            72.87                       # Row buffer hit rate for reads (Ratio)
system.mem_ctrls.dram.writeRowHitRate             nan                       # Row buffer hit rate for writes (Ratio)
system.mem_ctrls.dram.bytesPerActivate::samples          449                       # Bytes accessed per row activation (Byte)
system.mem_ctrls.dram.bytesPerActivate::mean   232.623608                       # Bytes accessed per row activation (Byte)
system.mem_ctrls.dram.bytesPerActivate::gmean   149.643663                       # Bytes accessed per row activation (Byte)
system.mem_ctrls.dram.bytesPerActivate::stdev   257.745797                       # Bytes accessed per row activation (Byte)
system.mem_ctrls.dram.bytesPerActivate::0-127          181     40.31%     40.31% # Bytes accessed per row activation (Byte)
system.mem_ctrls.dram.bytesPerActivate::128-255          131     29.18%     69.49% # Bytes accessed per row activation (Byte)
system.mem_ctrls.dram.bytesPerActivate::256-383           53     11.80%     81.29% # Bytes accessed per row activation (Byte)
system.mem_ctrls.dram.bytesPerActivate::384-511           25      5.57%     86.86% # Bytes accessed per row activation (Byte)
system.mem_ctrls.dram.bytesPerActivate::512-639           16      3.56%     90.42% # Bytes accessed per row activation (Byte)
system.mem_ctrls.dram.bytesPerActivate::640-767            7      1.56%     91.98% # Bytes accessed per row activation (Byte)
system.mem_ctrls.dram.bytesPerActivate::768-895            6      1.34%     93.32% # Bytes accessed per row activation (Byte)
system.mem_ctrls.dram.bytesPerActivate::896-1023            6      1.34%     94.65% # Bytes accessed per row activation (Byte)
system.mem_ctrls.dram.bytesPerActivate::1024-1151           24      5.35%    100.00% # Bytes accessed per row activation (Byte)
system.mem_ctrls.dram.bytesPerActivate::total          449                       # Bytes accessed per row activation (Byte)
system.mem_ctrls.dram.dramBytesRead            107584                       # Total bytes read (Byte)
system.mem_ctrls.dram.dramBytesWritten              0                       # Total bytes written (Byte)
system.mem_ctrls.dram.avgRdBW              221.700174                       # Average DRAM read bandwidth in MiBytes/s ((Byte/Second))
system.mem_ctrls.dram.avgWrBW                       0                       # Average DRAM write bandwidth in MiBytes/s ((Byte/Second))
system.mem_ctrls.dram.peakBW                 12800.00                       # Theoretical peak bandwidth in MiByte/s ((Byte/Second))
system.mem_ctrls.dram.busUtil                    1.73                       # Data bus utilization in percentage (Ratio)
system.mem_ctrls.dram.busUtilRead                1.73                       # Data bus utilization in percentage for reads (Ratio)
system.mem_ctrls.dram.busUtilWrite               0.00                       # Data bus utilization in percentage for writes (Ratio)
system.mem_ctrls.dram.pageHitRate               72.87                       # Row buffer hit rate, read and write combined (Ratio)
system.mem_ctrls.dram.power_state.pwrStateResidencyTicks::UNDEFINED    485268000                       # Cumulative time (in ticks) in various power states (Tick)
system.mem_ctrls.dram.rank0.actEnergy         1649340                       # Energy for activate commands per rank (pJ) (Joule)
system.mem_ctrls.dram.rank0.preEnergy          861465                       # Energy for precharge commands per rank (pJ) (Joule)
system.mem_ctrls.dram.rank0.readEnergy        6518820                       # Energy for read commands per rank (pJ) (Joule)
system.mem_ctrls.dram.rank0.writeEnergy             0                       # Energy for write commands per rank (pJ) (Joule)
system.mem_ctrls.dram.rank0.refreshEnergy 38107680.000000                       # Energy for refresh commands per rank (pJ) (Joule)
system.mem_ctrls.dram.rank0.actBackEnergy     42974010                       # Energy for active background per rank (pJ) (Joule)
system.mem_ctrls.dram.rank0.preBackEnergy    150154560                       # Energy for precharge background per rank (pJ) (Joule)
system.mem_ctrls.dram.rank0.actPowerDownEnergy            0                       # Energy for active power-down per rank (pJ) (Joule)
system.mem_ctrls.dram.rank0.prePowerDownEnergy            0                       # Energy for precharge power-down per rank (pJ) (Joule)
system.mem_ctrls.dram.rank0.selfRefreshEnergy            0                       # Energy for self refresh per rank (pJ) (Joule)
system.mem_ctrls.dram.rank0.totalEnergy     240265875                       # Total energy per rank (pJ) (Joule)
system.mem_ctrls.dram.rank0.averagePower   495.119965                       # Core power per rank (mW) (Watt)
system.mem_ctrls.dram.rank0.totalIdleTime            0                       # Total Idle time Per DRAM Rank (Tick)
system.mem_ctrls.dram.rank0.pwrStateTime::IDLE    389983000                       # Time in different power states (Tick)
system.mem_ctrls.dram.rank0.pwrStateTime::REF     16120000                       # Time in different power states (Tick)
system.mem_ctrls.dram.rank0.pwrStateTime::SREF            0                       # Time in different power states (Tick)
system.mem_ctrls.dram.rank0.pwrStateTime::PRE_PDN            0                       # Time in different power states (Tick)
system.mem_ctrls.dram.rank0.pwrStateTime::ACT     79165000                       # Time in different power states (Tick)
system.mem_ctrls.dram.rank0.pwrStateTime::ACT_PDN            0                       # Time in different power states (Tick)
system.mem_ctrls.dram.rank1.actEnergy         1606500                       # Energy for activate commands per rank (pJ) (Joule)
system.mem_ctrls.dram.rank1.preEnergy          842490                       # Energy for precharge commands per rank (pJ) (Joule)
system.mem_ctrls.dram.rank1.readEnergy        5483520                       # Energy for read commands per rank (pJ) (Joule)
system.mem_ctrls.dram.rank1.writeEnergy             0                       # Energy for write commands per rank (pJ) (Joule)
system.mem_ctrls.dram.rank1.refreshEnergy 38107680.000000                       # Energy for refresh commands per rank (pJ) (Joule)
system.mem_ctrls.dram.rank1.actBackEnergy     41772450                       # Energy for active background per rank (pJ) (Joule)
system.mem_ctrls.dram.rank1.preBackEnergy    151166400                       # Energy for precharge background per rank (pJ) (Joule)
system.mem_ctrls.dram.rank1.actPowerDownEnergy            0                       # Energy for active power-down per rank (pJ) (Joule)
system.mem_ctrls.dram.rank1.prePowerDownEnergy            0                       # Energy for precharge power-down per rank (pJ) (Joule)
system.mem_ctrls.dram.rank1.selfRefreshEnergy            0                       # Energy for self refresh per rank (pJ) (Joule)
system.mem_ctrls.dram.rank1.totalEnergy     238979040                       # Total energy per rank (pJ) (Joule)
system.mem_ctrls.dram.rank1.averagePower   492.468162                       # Core power per rank (mW) (Watt)
system.mem_ctrls.dram.rank1.totalIdleTime            0                       # Total Idle time Per DRAM Rank (Tick)
system.mem_ctrls.dram.rank1.pwrStateTime::IDLE    392616000                       # Time in different power states (Tick)
system.mem_ctrls.dram.rank1.pwrStateTime::REF     16120000                       # Time in different power states (Tick)
system.mem_ctrls.dram.rank1.pwrStateTime::SREF            0                       # Time in different power states (Tick)
system.mem_ctrls.dram.rank1.pwrStateTime::PRE_PDN            0                       # Time in different power states (Tick)
system.mem_ctrls.dram.rank1.pwrStateTime::ACT     76532000                       # Time in different power states (Tick)
system.mem_ctrls.dram.rank1.pwrStateTime::ACT_PDN            0                       # Time in different power states (Tick)
system.mem_ctrls.power_state.pwrStateResidencyTicks::UNDEFINED    485268000                       # Cumulative time (in ticks) in various power states (Tick)
system.ruby.m_outstandReqHistSeqr::bucket_size            1                       (Unspecified)
system.ruby.m_outstandReqHistSeqr::max_bucket            9                       (Unspecified)
system.ruby.m_outstandReqHistSeqr::samples       465445                       (Unspecified)
system.ruby.m_outstandReqHistSeqr::mean      1.000017                       (Unspecified)
system.ruby.m_outstandReqHistSeqr::gmean     1.000012                       (Unspecified)
system.ruby.m_outstandReqHistSeqr::stdev     0.004146                       (Unspecified)
system.ruby.m_outstandReqHistSeqr        |           0      0.00%      0.00% |      465437    100.00%    100.00% |           8      0.00%    100.00% |           0      0.00%    100.00% |           0      0.00%    100.00% |           0      0.00%    100.00% |           0      0.00%    100.00% |           0      0.00%    100.00% |           0      0.00%    100.00% |           0      0.00%    100.00% (Unspecified)
system.ruby.m_outstandReqHistSeqr::total       465445                       (Unspecified)
system.ruby.m_latencyHistSeqr::bucket_size          128                       (Unspecified)
system.ruby.m_latencyHistSeqr::max_bucket         1279                       (Unspecified)
system.ruby.m_latencyHistSeqr::samples         465445                       (Unspecified)
system.ruby.m_latencyHistSeqr::mean          3.171047                       (Unspecified)
system.ruby.m_latencyHistSeqr::gmean         1.144576                       (Unspecified)
system.ruby.m_latencyHistSeqr::stdev        12.971277                       (Unspecified)
system.ruby.m_latencyHistSeqr            |      464919     99.89%     99.89% |         507      0.11%    100.00% |           2      0.00%    100.00% |           2      0.00%    100.00% |          11      0.00%    100.00% |           4      0.00%    100.00% |           0      0.00%    100.00% |           0      0.00%    100.00% |           0      0.00%    100.00% |           0      0.00%    100.00% (Unspecified)
system.ruby.m_latencyHistSeqr::total           465445                       (Unspecified)
system.ruby.m_hitLatencyHistSeqr::bucket_size            1                       (Unspecified)
system.ruby.m_hitLatencyHistSeqr::max_bucket            9                       (Unspecified)
system.ruby.m_hitLatencyHistSeqr::samples       450381                       (Unspecified)
system.ruby.m_hitLatencyHistSeqr::mean              1                       (Unspecified)
system.ruby.m_hitLatencyHistSeqr::gmean             1                       (Unspecified)
system.ruby.m_hitLatencyHistSeqr         |           0      0.00%      0.00% |      450381    100.00%    100.00% |           0      0.00%    100.00% |           0      0.00%    100.00% |           0      0.00%    100.00% |           0      0.00%    100.00% |           0      0.00%    100.00% |           0      0.00%    100.00% |           0      0.00%    100.00% |           0      0.00%    100.00% (Unspecified)
system.ruby.m_hitLatencyHistSeqr::total        450381                       (Unspecified)
system.ruby.m_missLatencyHistSeqr::bucket_size          128                       (Unspecified)
system.ruby.m_missLatencyHistSeqr::max_bucket         1279                       (Unspecified)
system.ruby.m_missLatencyHistSeqr::samples        15064                       (Unspecified)
system.ruby.m_missLatencyHistSeqr::mean     68.080656                       (Unspecified)
system.ruby.m_missLatencyHistSeqr::gmean    64.862766                       (Unspecified)
system.ruby.m_missLatencyHistSeqr::stdev    29.061161                       (Unspecified)
system.ruby.m_missLatencyHistSeqr        |       14538     96.51%     96.51% |         507      3.37%     99.87% |           2      0.01%     99.89% |           2      0.01%     99.90% |          11      0.07%     99.97% |           4      0.03%    100.00% |           0      0.00%    100.00% |           0      0.00%    100.00% |           0      0.00%    100.00% |           0      0.00%    100.00% (Unspecified)
system.ruby.m_missLatencyHistSeqr::total        15064                       (Unspecified)
system.ruby.Directory_Controller.GETX             410      0.00%      0.00% (Unspecified)
system.ruby.Directory_Controller.GETS            1271      0.00%      0.00% (Unspecified)
system.ruby.Directory_Controller.Unblock         1270      0.00%      0.00% (Unspecified)
system.ruby.Directory_Controller.Exclusive_Unblock          410      0.00%      0.00% (Unspecified)
system.ruby.Directory_Controller.Memory_Data_Cache         1681      0.00%      0.00% (Unspecified)
system.ruby.Directory_Controller.I.GETX           358      0.00%      0.00% (Unspecified)
system.ruby.Directory_Controller.I.GETS          1271      0.00%      0.00% (Unspecified)
system.ruby.Directory_Controller.S.GETX            52      0.00%      0.00% (Unspecified)
system.ruby.Directory_Controller.IS_M.Memory_Data_Cache         1271      0.00%      0.00% (Unspecified)
system.ruby.Directory_Controller.IS.Unblock         1270      0.00%      0.00% (Unspecified)
system.ruby.Directory_Controller.MM_M.Memory_Data_Cache          410      0.00%      0.00% (Unspecified)
system.ruby.Directory_Controller.MM.Exclusive_Unblock          410      0.00%      0.00% (Unspecified)
system.ruby.L1Cache_Controller.Load      |       11882     46.90%     46.90% |       13453     53.10%    100.00% (Unspecified)
system.ruby.L1Cache_Controller.Load::total        25335                       (Unspecified)
system.ruby.L1Cache_Controller.Ifetch    |      205891     49.54%     49.54% |      209706     50.46%    100.00% (Unspecified)
system.ruby.L1Cache_Controller.Ifetch::total       415597                       (Unspecified)
system.ruby.L1Cache_Controller.Store     |       12585     51.34%     51.34% |       11928     48.66%    100.00% (Unspecified)
system.ruby.L1Cache_Controller.Store::total        24513                       (Unspecified)
system.ruby.L1Cache_Controller.L1_Replacement |         144     50.70%     50.70% |         140     49.30%    100.00% (Unspecified)
system.ruby.L1Cache_Controller.L1_Replacement::total          284                       (Unspecified)
system.ruby.L1Cache_Controller.Fwd_GETX  |       16670     49.99%     49.99% |       16674     50.01%    100.00% (Unspecified)
system.ruby.L1Cache_Controller.Fwd_GETX::total        33344                       (Unspecified)
system.ruby.L1Cache_Controller.Fwd_GETS  |       13366     50.04%     50.04% |       13345     49.96%    100.00% (Unspecified)
system.ruby.L1Cache_Controller.Fwd_GETS::total        26711                       (Unspecified)
system.ruby.L1Cache_Controller.Ack       |        3342     50.03%     50.03% |        3338     49.97%    100.00% (Unspecified)
system.ruby.L1Cache_Controller.Ack::total         6680                       (Unspecified)
[...]
system.ruby.network.routers3.throttle00.avg_msg_wait_time            0                       # Average time a message took to be forwarded (Ratio)
system.ruby.network.routers3.throttle00.avg_bandwidth         0.05                       # Average bandwidth (GB/s) (Ratio)
system.ruby.network.routers3.throttle00.avg_useful_bandwidth         0.00                       # Average useful (only data) bandwidth (GB/s) (Ratio)
system.ruby.network.routers3.throttle00.msg_count.Request_Control::1         1681                       (Unspecified)
system.ruby.network.routers3.throttle00.msg_bytes.Request_Control::1        13448                       (Unspecified)
system.ruby.network.routers3.throttle00.msg_count.Unblock_Control::2         1680                       (Unspecified)
system.ruby.network.routers3.throttle00.msg_bytes.Unblock_Control::2        13440                       (Unspecified)
system.ruby.network.routers3.throttle01.acc_link_utilization  7564.500000                       # Accumulated link utilization system.ruby.network.int_links3 (Count)
system.ruby.network.routers3.throttle01.link_utilization     0.779415                       # Average link utilization (Ratio)
system.ruby.network.routers3.throttle01.total_msg_count         1681                       # Total number of messages forwarded by this switch (Count)
system.ruby.network.routers3.throttle01.total_msg_bytes       121032                       # Total number of bytes forwarded by this switch (Byte)
system.ruby.network.routers3.throttle01.total_data_msg_bytes       107584                       # Total number of data bytes forwarded by this switch (Byte)
system.ruby.network.routers3.throttle01.total_msg_wait_time            0                       # Total time spend forwarding messages (Tick)
system.ruby.network.routers3.throttle01.total_stall_cy            0                       # Total time spent blocked on any output link (Cycle)
system.ruby.network.routers3.throttle01.total_bw_sat_cy         6724                       # Total time bandwidth was saturated on any output link (Cycle)
system.ruby.network.routers3.throttle01.avg_msg_wait_time            0                       # Average time a message took to be forwarded (Ratio)
system.ruby.network.routers3.throttle01.avg_bandwidth         0.23                       # Average bandwidth (GB/s) (Ratio)
system.ruby.network.routers3.throttle01.avg_useful_bandwidth         0.21                       # Average useful (only data) bandwidth (GB/s) (Ratio)
system.ruby.network.routers3.throttle01.msg_count.Response_Data::2         1681                       (Unspecified)
system.ruby.network.routers3.throttle01.msg_bytes.Response_Data::2       121032                       (Unspecified)
system.ruby.network.routers4.percent_links_utilized     2.670444                       (Unspecified)
system.ruby.network.routers4.msg_count.Request_Control::0        15064                       (Unspecified)
system.ruby.network.routers4.msg_count.Request_Control::1         1681                       (Unspecified)
system.ruby.network.routers4.msg_bytes.Request_Control::0       120512                       (Unspecified)
system.ruby.network.routers4.msg_bytes.Request_Control::1        13448                       (Unspecified)
system.ruby.network.routers4.msg_count.Response_Data::2         3362                       (Unspecified)
system.ruby.network.routers4.msg_bytes.Response_Data::2       242064                       (Unspecified)
system.ruby.network.routers4.msg_count.ResponseL2hit_Data::2           24                       (Unspecified)
system.ruby.network.routers4.msg_bytes.ResponseL2hit_Data::2         1728                       (Unspecified)
system.ruby.network.routers4.msg_count.ResponseLocal_Data::2        13359                       (Unspecified)
system.ruby.network.routers4.msg_bytes.ResponseLocal_Data::2       961848                       (Unspecified)
system.ruby.network.routers4.msg_count.Response_Control::2         6680                       (Unspecified)
system.ruby.network.routers4.msg_bytes.Response_Control::2        53440                       (Unspecified)
system.ruby.network.routers4.msg_count.Writeback_Data::0          282                       (Unspecified)
system.ruby.network.routers4.msg_bytes.Writeback_Data::0        20304                       (Unspecified)
system.ruby.network.routers4.msg_count.Writeback_Control::0          284                       (Unspecified)
system.ruby.network.routers4.msg_count.Writeback_Control::2          284                       (Unspecified)
system.ruby.network.routers4.msg_bytes.Writeback_Control::0         2272                       (Unspecified)
system.ruby.network.routers4.msg_bytes.Writeback_Control::2         2272                       (Unspecified)
system.ruby.network.routers4.msg_count.Forwarded_Control::0        13359                       (Unspecified)
system.ruby.network.routers4.msg_bytes.Forwarded_Control::0       106872                       (Unspecified)
system.ruby.network.routers4.msg_count.Unblock_Control::2        16746                       (Unspecified)
system.ruby.network.routers4.msg_bytes.Unblock_Control::2       133968                       (Unspecified)
system.ruby.network.routers4.port_buffers0.m_msg_count         6680                       # Number of messages passed the buffer (Count)
system.ruby.network.routers4.port_buffers0.m_buf_msgs     0.006883                       # Average number of messages in buffer ((Count/Tick))
system.ruby.network.routers4.port_buffers10.m_msg_count         1681                       # Number of messages passed the buffer (Count)
system.ruby.network.routers4.port_buffers10.m_buf_msgs     0.001732                       # Average number of messages in buffer ((Count/Tick))
system.ruby.network.routers4.port_buffers11.m_msg_count         1680                       # Number of messages passed the buffer (Count)
system.ruby.network.routers4.port_buffers11.m_buf_msgs     0.001731                       # Average number of messages in buffer ((Count/Tick))
system.ruby.network.routers4.port_buffers2.m_msg_count        11062                       # Number of messages passed the buffer (Count)
system.ruby.network.routers4.port_buffers2.m_buf_msgs     0.011398                       # Average number of messages in buffer ((Count/Tick))
system.ruby.network.routers4.port_buffers3.m_msg_count         6679                       # Number of messages passed the buffer (Count)
system.ruby.network.routers4.port_buffers3.m_buf_msgs     0.006882                       # Average number of messages in buffer ((Count/Tick))
system.ruby.network.routers4.port_buffers5.m_msg_count        10966                       # Number of messages passed the buffer (Count)
system.ruby.network.routers4.port_buffers5.m_buf_msgs     0.011299                       # Average number of messages in buffer ((Count/Tick))
system.ruby.network.routers4.port_buffers6.m_msg_count        15630                       # Number of messages passed the buffer (Count)
system.ruby.network.routers4.port_buffers6.m_buf_msgs     0.016326                       # Average number of messages in buffer ((Count/Tick))
system.ruby.network.routers4.port_buffers6.m_stall_time       107500                       # Total number of ticks messages were stalled in this buffer (Tick)
system.ruby.network.routers4.port_buffers6.m_avg_stall_time     6.877799                       # Average stall ticks per message ((Tick/Count))
system.ruby.network.routers4.port_buffers8.m_msg_count        16747                       # Number of messages passed the buffer (Count)
system.ruby.network.routers4.port_buffers8.m_buf_msgs     0.017370                       # Average number of messages in buffer ((Count/Tick))
system.ruby.network.routers4.port_buffers8.m_stall_time        55500                       # Total number of ticks messages were stalled in this buffer (Tick)
system.ruby.network.routers4.port_buffers8.m_avg_stall_time     3.314026                       # Average stall ticks per message ((Tick/Count))
system.ruby.network.routers4.power_state.pwrStateResidencyTicks::UNDEFINED    485268000                       # Cumulative time (in ticks) in various power states (Tick)
system.ruby.network.routers4.throttle00.acc_link_utilization        39175                       # Accumulated link utilization system.ruby.network.int_links4 (Count)
system.ruby.network.routers4.throttle00.link_utilization     4.036429                       # Average link utilization (Ratio)
system.ruby.network.routers4.throttle00.total_msg_count        17742                       # Total number of messages forwarded by this switch (Count)
system.ruby.network.routers4.throttle00.total_msg_bytes       626800                       # Total number of bytes forwarded by this switch (Byte)
system.ruby.network.routers4.throttle00.total_data_msg_bytes       484864                       # Total number of data bytes forwarded by this switch (Byte)
system.ruby.network.routers4.throttle00.total_msg_wait_time            0                       # Total time spend forwarding messages (Tick)
system.ruby.network.routers4.throttle00.total_stall_cy            0                       # Total time spent blocked on any output link (Cycle)
system.ruby.network.routers4.throttle00.total_bw_sat_cy        30304                       # Total time bandwidth was saturated on any output link (Cycle)
system.ruby.network.routers4.throttle00.avg_msg_wait_time            0                       # Average time a message took to be forwarded (Ratio)
system.ruby.network.routers4.throttle00.avg_bandwidth         1.20                       # Average bandwidth (GB/s) (Ratio)
system.ruby.network.routers4.throttle00.avg_useful_bandwidth         0.93                       # Average useful (only data) bandwidth (GB/s) (Ratio)
system.ruby.network.routers4.throttle00.msg_count.Response_Data::2          885                       (Unspecified)
system.ruby.network.routers4.throttle00.msg_bytes.Response_Data::2        63720                       (Unspecified)
system.ruby.network.routers4.throttle00.msg_count.ResponseL2hit_Data::2           12                       (Unspecified)
system.ruby.network.routers4.throttle00.msg_bytes.ResponseL2hit_Data::2          864                       (Unspecified)
system.ruby.network.routers4.throttle00.msg_count.ResponseLocal_Data::2         6679                       (Unspecified)
system.ruby.network.routers4.throttle00.msg_bytes.ResponseLocal_Data::2       480888                       (Unspecified)
system.ruby.network.routers4.throttle00.msg_count.Response_Control::2         3342                       (Unspecified)
system.ruby.network.routers4.throttle00.msg_bytes.Response_Control::2        26736                       (Unspecified)
system.ruby.network.routers4.throttle00.msg_count.Writeback_Control::2          144                       (Unspecified)
system.ruby.network.routers4.throttle00.msg_bytes.Writeback_Control::2         1152                       (Unspecified)
system.ruby.network.routers4.throttle00.msg_count.Forwarded_Control::0         6680                       (Unspecified)
system.ruby.network.routers4.throttle00.msg_bytes.Forwarded_Control::0        53440                       (Unspecified)
system.ruby.network.routers4.throttle01.acc_link_utilization 38774.500000                       # Accumulated link utilization system.ruby.network.int_links5 (Count)
system.ruby.network.routers4.throttle01.link_utilization     3.995163                       # Average link utilization (Ratio)
system.ruby.network.routers4.throttle01.total_msg_count        17645                       # Total number of messages forwarded by this switch (Count)
system.ruby.network.routers4.throttle01.total_msg_bytes       620392                       # Total number of bytes forwarded by this switch (Byte)
system.ruby.network.routers4.throttle01.total_data_msg_bytes       479232                       # Total number of data bytes forwarded by this switch (Byte)
system.ruby.network.routers4.throttle01.total_msg_wait_time            0                       # Total time spend forwarding messages (Tick)
system.ruby.network.routers4.throttle01.total_stall_cy            0                       # Total time spent blocked on any output link (Cycle)
system.ruby.network.routers4.throttle01.total_bw_sat_cy        29952                       # Total time bandwidth was saturated on any output link (Cycle)
system.ruby.network.routers4.throttle01.avg_msg_wait_time            0                       # Average time a message took to be forwarded (Ratio)
system.ruby.network.routers4.throttle01.avg_bandwidth         1.19                       # Average bandwidth (GB/s) (Ratio)
system.ruby.network.routers4.throttle01.avg_useful_bandwidth         0.92                       # Average useful (only data) bandwidth (GB/s) (Ratio)
system.ruby.network.routers4.throttle01.msg_count.Response_Data::2          796                       (Unspecified)
system.ruby.network.routers4.throttle01.msg_bytes.Response_Data::2        57312                       (Unspecified)
system.ruby.network.routers4.throttle01.msg_count.ResponseL2hit_Data::2           12                       (Unspecified)
system.ruby.network.routers4.throttle01.msg_bytes.ResponseL2hit_Data::2          864                       (Unspecified)
system.ruby.network.routers4.throttle01.msg_count.ResponseLocal_Data::2         6680                       (Unspecified)
system.ruby.network.routers4.throttle01.msg_bytes.ResponseLocal_Data::2       480960                       (Unspecified)
system.ruby.network.routers4.throttle01.msg_count.Response_Control::2         3338                       (Unspecified)
system.ruby.network.routers4.throttle01.msg_bytes.Response_Control::2        26704                       (Unspecified)
system.ruby.network.routers4.throttle01.msg_count.Writeback_Control::2          140                       (Unspecified)
system.ruby.network.routers4.throttle01.msg_bytes.Writeback_Control::2         1120                       (Unspecified)
system.ruby.network.routers4.throttle01.msg_count.Forwarded_Control::0         6679                       (Unspecified)
system.ruby.network.routers4.throttle01.msg_bytes.Forwarded_Control::0        53432                       (Unspecified)
system.ruby.network.routers4.throttle02.acc_link_utilization 24040.500000                       # Accumulated link utilization system.ruby.network.int_links6 (Count)
system.ruby.network.routers4.throttle02.link_utilization     2.477033                       # Average link utilization (Ratio)
system.ruby.network.routers4.throttle02.total_msg_count        32377                       # Total number of messages forwarded by this switch (Count)
system.ruby.network.routers4.throttle02.total_msg_bytes       384648                       # Total number of bytes forwarded by this switch (Byte)
system.ruby.network.routers4.throttle02.total_data_msg_bytes       125632                       # Total number of data bytes forwarded by this switch (Byte)
system.ruby.network.routers4.throttle02.total_msg_wait_time       163000                       # Total time spend forwarding messages (Tick)
system.ruby.network.routers4.throttle02.total_stall_cy            0                       # Total time spent blocked on any output link (Cycle)
system.ruby.network.routers4.throttle02.total_bw_sat_cy         7872                       # Total time bandwidth was saturated on any output link (Cycle)
system.ruby.network.routers4.throttle02.avg_msg_wait_time     5.034438                       # Average time a message took to be forwarded (Ratio)
system.ruby.network.routers4.throttle02.avg_bandwidth         0.74                       # Average bandwidth (GB/s) (Ratio)
system.ruby.network.routers4.throttle02.avg_useful_bandwidth         0.24                       # Average useful (only data) bandwidth (GB/s) (Ratio)
system.ruby.network.routers4.throttle02.msg_count.Request_Control::0        15064                       (Unspecified)
system.ruby.network.routers4.throttle02.msg_bytes.Request_Control::0       120512                       (Unspecified)
system.ruby.network.routers4.throttle02.msg_count.Response_Data::2         1681                       (Unspecified)
system.ruby.network.routers4.throttle02.msg_bytes.Response_Data::2       121032                       (Unspecified)
system.ruby.network.routers4.throttle02.msg_count.Writeback_Data::0          282                       (Unspecified)
system.ruby.network.routers4.throttle02.msg_bytes.Writeback_Data::0        20304                       (Unspecified)
system.ruby.network.routers4.throttle02.msg_count.Writeback_Control::0          284                       (Unspecified)
system.ruby.network.routers4.throttle02.msg_bytes.Writeback_Control::0         2272                       (Unspecified)
system.ruby.network.routers4.throttle02.msg_count.Unblock_Control::2        15066                       (Unspecified)
system.ruby.network.routers4.throttle02.msg_bytes.Unblock_Control::2       120528                       (Unspecified)
system.ruby.network.routers4.throttle03.acc_link_utilization  1680.500000                       # Accumulated link utilization system.ruby.network.int_links7 (Count)
system.ruby.network.routers4.throttle03.link_utilization     0.173152                       # Average link utilization (Ratio)
system.ruby.network.routers4.throttle03.total_msg_count         3361                       # Total number of messages forwarded by this switch (Count)
system.ruby.network.routers4.throttle03.total_msg_bytes        26888                       # Total number of bytes forwarded by this switch (Byte)
system.ruby.network.routers4.throttle03.total_data_msg_bytes            0                       # Total number of data bytes forwarded by this switch (Byte)
system.ruby.network.routers4.throttle03.total_msg_wait_time            0                       # Total time spend forwarding messages (Tick)
system.ruby.network.routers4.throttle03.total_stall_cy            0                       # Total time spent blocked on any output link (Cycle)
system.ruby.network.routers4.throttle03.total_bw_sat_cy            0                       # Total time bandwidth was saturated on any output link (Cycle)
system.ruby.network.routers4.throttle03.avg_msg_wait_time            0                       # Average time a message took to be forwarded (Ratio)
system.ruby.network.routers4.throttle03.avg_bandwidth         0.05                       # Average bandwidth (GB/s) (Ratio)
system.ruby.network.routers4.throttle03.avg_useful_bandwidth         0.00                       # Average useful (only data) bandwidth (GB/s) (Ratio)
system.ruby.network.routers4.throttle03.msg_count.Request_Control::1         1681                       (Unspecified)
system.ruby.network.routers4.throttle03.msg_bytes.Request_Control::1        13448                       (Unspecified)
system.ruby.network.routers4.throttle03.msg_count.Unblock_Control::2         1680                       (Unspecified)
system.ruby.network.routers4.throttle03.msg_bytes.Unblock_Control::2        13440                       (Unspecified)
system.ruby.power_state.pwrStateResidencyTicks::UNDEFINED    485268000                       # Cumulative time (in ticks) in various power states (Tick)
system.sys_port_proxy.power_state.pwrStateResidencyTicks::UNDEFINED    485268000                       # Cumulative time (in ticks) in various power states (Tick)
system.voltage_domain.voltage                       1                       # Voltage in Volts (Volt)
system.workload.inst.arm                            0                       # number of arm instructions executed (Count)
system.workload.inst.quiesce                        0                       # number of quiesce instructions executed (Count)

---------- End Simulation Statistics   ----------
