
---------- Begin Simulation Statistics ----------
simSeconds                                   0.004790                       # Number of seconds simulated (Second)
simTicks                                   4790351500                       # Number of ticks simulated (Tick)
finalTick                                  4790351500                       # Number of ticks from beginning of simulation (restored from checkpoints and never reset) (Tick)
simFreq                                  1000000000000                       # The number of ticks per simulated second ((Tick/Second))
hostSeconds                                     36.07                       # Real time elapsed on the host (Second)
hostTickRate                                132815018                       # The number of ticks simulated per host second (ticks/s) ((Tick/Second))
hostMemory                                    2718936                       # Number of bytes of host memory used (Byte)
simInsts                                     10481496                       # Number of instructions simulated (Count)
simOps                                       17989570                       # Number of ops (including micro ops) simulated (Count)
hostInstRate                                   290604                       # Simulator instruction rate (inst/s) ((Count/Second))
hostOpRate                                     498769                       # Simulator op (including micro ops) rate (op/s) ((Count/Second))
system.clk_domain.clock                          1000                       # Clock period in ticks (Tick)
system.cpu0.numCycles                         9580703                       # Number of cpu cycles simulated (Cycle)
system.cpu0.cpi                             14.254602                       # CPI: cycles per instruction (core level) ((Cycle/Count))
system.cpu0.ipc                              0.070153                       # IPC: instructions per cycle (core level) ((Count/Cycle))
system.cpu0.numWorkItemsStarted                     0                       # Number of work items this cpu started (Count)
system.cpu0.numWorkItemsCompleted                   0                       # Number of work items this cpu completed (Count)
system.cpu0.commitStats0.numInsts              672113                       # Number of instructions committed (thread level) (Count)
system.cpu0.commitStats0.numOps               1163170                       # Number of ops (including micro ops) committed (thread level) (Count)
system.cpu0.commitStats0.numInstsNotNOP             0                       # Number of instructions committed excluding NOPs or prefetches (Count)
system.cpu0.commitStats0.numOpsNotNOP               0                       # Number of Ops (including micro ops) Simulated (Count)
system.cpu0.commitStats0.cpi                14.254602                       # CPI: cycles per instruction (thread level) ((Cycle/Count))
system.cpu0.commitStats0.ipc                 0.070153                       # IPC: instructions per cycle (thread level) ((Count/Cycle))
system.cpu0.commitStats0.numMemRefs                 0                       # Number of memory references committed (Count)
system.cpu0.commitStats0.numFpInsts              1354                       # Number of float instructions (Count)
system.cpu0.commitStats0.numIntInsts          1152309                       # Number of integer instructions (Count)
system.cpu0.commitStats0.numLoadInsts          122300                       # Number of load instructions (Count)
system.cpu0.commitStats0.numStoreInsts          12550                       # Number of store instructions (Count)
system.cpu0.commitStats0.numVecInsts                0                       # Number of vector instructions (Count)
system.cpu0.commitStats0.committedInstType::No_OpClass        10209      0.88%      0.88% # Class of committed instruction. (Count)
system.cpu0.commitStats0.committedInstType::IntAlu      1017524     87.48%     88.36% # Class of committed instruction. (Count)
system.cpu0.commitStats0.committedInstType::IntMult           13      0.00%     88.36% # Class of committed instruction. (Count)
system.cpu0.commitStats0.committedInstType::IntDiv           21      0.00%     88.36% # Class of committed instruction. (Count)
system.cpu0.commitStats0.committedInstType::FloatAdd          172      0.01%     88.37% # Class of committed instruction. (Count)
system.cpu0.commitStats0.committedInstType::FloatCmp            0      0.00%     88.37% # Class of committed instruction. (Count)
system.cpu0.commitStats0.committedInstType::FloatCvt            0      0.00%     88.37% # Class of committed instruction. (Count)
system.cpu0.commitStats0.committedInstType::FloatMult            0      0.00%     88.37% # Class of committed instruction. (Count)
system.cpu0.commitStats0.committedInstType::FloatMultAcc            0      0.00%     88.37% # Class of committed instruction. (Count)
system.cpu0.commitStats0.committedInstType::FloatDiv            0      0.00%     88.37% # Class of committed instruction. (Count)
system.cpu0.commitStats0.committedInstType::FloatMisc            0      0.00%     88.37% # Class of committed instruction. (Count)
system.cpu0.commitStats0.committedInstType::FloatSqrt            0      0.00%     88.37% # Class of committed instruction. (Count)
system.cpu0.commitStats0.committedInstType::SimdAdd            8      0.00%     88.37% # Class of committed instruction. (Count)
system.cpu0.commitStats0.committedInstType::SimdAddAcc            0      0.00%     88.37% # Class of committed instruction. (Count)
system.cpu0.commitStats0.committedInstType::SimdAlu           96      0.01%     88.38% # Class of committed instruction. (Count)
system.cpu0.commitStats0.committedInstType::SimdCmp            0      0.00%     88.38% # Class of committed instruction. (Count)
system.cpu0.commitStats0.committedInstType::SimdCvt           48      0.00%     88.39% # Class of committed instruction. (Count)
system.cpu0.commitStats0.committedInstType::SimdMisc          229      0.02%     88.41% # Class of committed instruction. (Count)
system.cpu0.commitStats0.committedInstType::SimdMult            0      0.00%     88.41% # Class of committed instruction. (Count)
system.cpu0.commitStats0.committedInstType::SimdMultAcc            0      0.00%     88.41% # Class of committed instruction. (Count)
system.cpu0.commitStats0.committedInstType::SimdMatMultAcc            0      0.00%     88.41% # Class of committed instruction. (Count)
system.cpu0.commitStats0.committedInstType::SimdShift            0      0.00%     88.41% # Class of committed instruction. (Count)
system.cpu0.commitStats0.committedInstType::SimdShiftAcc            0      0.00%     88.41% # Class of committed instruction. (Count)
system.cpu0.commitStats0.committedInstType::SimdDiv            0      0.00%     88.41% # Class of committed instruction. (Count)
system.cpu0.commitStats0.committedInstType::SimdSqrt            0      0.00%     88.41% # Class of committed instruction. (Count)
system.cpu0.commitStats0.committedInstType::SimdFloatAdd            0      0.00%     88.41% # Class of committed instruction. (Count)
system.cpu0.commitStats0.committedInstType::SimdFloatAlu            0      0.00%     88.41% # Class of committed instruction. (Count)
system.cpu0.commitStats0.committedInstType::SimdFloatCmp            0      0.00%     88.41% # Class of committed instruction. (Count)
system.cpu0.commitStats0.committedInstType::SimdFloatCvt            0      0.00%     88.41% # Class of committed instruction. (Count)
system.cpu0.commitStats0.committedInstType::SimdFloatDiv            0      0.00%     88.41% # Class of committed instruction. (Count)
system.cpu0.commitStats0.committedInstType::SimdFloatMisc            0      0.00%     88.41% # Class of committed instruction. (Count)
system.cpu0.commitStats0.committedInstType::SimdFloatMult            0      0.00%     88.41% # Class of committed instruction. (Count)
system.cpu0.commitStats0.committedInstType::SimdFloatMultAcc            0      0.00%     88.41% # Class of committed instruction. (Count)
system.cpu0.commitStats0.committedInstType::SimdFloatMatMultAcc            0      0.00%     88.41% # Class of committed instruction. (Count)
system.cpu0.commitStats0.committedInstType::SimdFloatSqrt            0      0.00%     88.41% # Class of committed instruction. (Count)
system.cpu0.commitStats0.committedInstType::SimdReduceAdd            0      0.00%     88.41% # Class of committed instruction. (Count)
system.cpu0.commitStats0.committedInstType::SimdReduceAlu            0      0.00%     88.41% # Class of committed instruction. (Count)
system.cpu0.commitStats0.committedInstType::SimdReduceCmp            0      0.00%     88.41% # Class of committed instruction. (Count)
system.cpu0.commitStats0.committedInstType::SimdFloatReduceAdd            0      0.00%     88.41% # Class of committed instruction. (Count)
system.cpu0.commitStats0.committedInstType::SimdFloatReduceCmp            0      0.00%     88.41% # Class of committed instruction. (Count)
system.cpu0.commitStats0.committedInstType::SimdAes            0      0.00%     88.41% # Class of committed instruction. (Count)
system.cpu0.commitStats0.committedInstType::SimdAesMix            0      0.00%     88.41% # Class of committed instruction. (Count)
system.cpu0.commitStats0.committedInstType::SimdSha1Hash            0      0.00%     88.41% # Class of committed instruction. (Count)
system.cpu0.commitStats0.committedInstType::SimdSha1Hash2            0      0.00%     88.41% # Class of committed instruction. (Count)
system.cpu0.commitStats0.committedInstType::SimdSha256Hash            0      0.00%     88.41% # Class of committed instruction. (Count)
system.cpu0.commitStats0.committedInstType::SimdSha256Hash2            0      0.00%     88.41% # Class of committed instruction. (Count)
system.cpu0.commitStats0.committedInstType::SimdShaSigma2            0      0.00%     88.41% # Class of committed instruction. (Count)
system.cpu0.commitStats0.committedInstType::SimdShaSigma3            0      0.00%     88.41% # Class of committed instruction. (Count)
system.cpu0.commitStats0.committedInstType::SimdPredAlu            0      0.00%     88.41% # Class of committed instruction. (Count)
system.cpu0.commitStats0.committedInstType::Matrix            0      0.00%     88.41% # Class of committed instruction. (Count)
system.cpu0.commitStats0.committedInstType::MatrixMov            0      0.00%     88.41% # Class of committed instruction. (Count)
system.cpu0.commitStats0.committedInstType::MatrixOP            0      0.00%     88.41% # Class of committed instruction. (Count)
system.cpu0.commitStats0.committedInstType::MemRead       122179     10.50%     98.91% # Class of committed instruction. (Count)
system.cpu0.commitStats0.committedInstType::MemWrite        12027      1.03%     99.94% # Class of committed instruction. (Count)
system.cpu0.commitStats0.committedInstType::FloatMemRead          121      0.01%     99.96% # Class of committed instruction. (Count)
system.cpu0.commitStats0.committedInstType::FloatMemWrite          523      0.04%    100.00% # Class of committed instruction. (Count)
system.cpu0.commitStats0.committedInstType::IprAccess            0      0.00%    100.00% # Class of committed instruction. (Count)
system.cpu0.commitStats0.committedInstType::InstPrefetch            0      0.00%    100.00% # Class of committed instruction. (Count)
system.cpu0.commitStats0.committedInstType::SimdUnitStrideLoad            0      0.00%    100.00% # Class of committed instruction. (Count)
system.cpu0.commitStats0.committedInstType::SimdUnitStrideStore            0      0.00%    100.00% # Class of committed instruction. (Count)
system.cpu0.commitStats0.committedInstType::SimdUnitStrideMaskLoad            0      0.00%    100.00% # Class of committed instruction. (Count)
system.cpu0.commitStats0.committedInstType::SimdUnitStrideMaskStore            0      0.00%    100.00% # Class of committed instruction. (Count)
system.cpu0.commitStats0.committedInstType::SimdStridedLoad            0      0.00%    100.00% # Class of committed instruction. (Count)
system.cpu0.commitStats0.committedInstType::SimdStridedStore            0      0.00%    100.00% # Class of committed instruction. (Count)
system.cpu0.commitStats0.committedInstType::SimdIndexedLoad            0      0.00%    100.00% # Class of committed instruction. (Count)
system.cpu0.commitStats0.committedInstType::SimdIndexedStore            0      0.00%    100.00% # Class of committed instruction. (Count)
system.cpu0.commitStats0.committedInstType::SimdWholeRegisterLoad            0      0.00%    100.00% # Class of committed instruction. (Count)
system.cpu0.commitStats0.committedInstType::SimdWholeRegisterStore            0      0.00%    100.00% # Class of committed instruction. (Count)
system.cpu0.commitStats0.committedInstType::SimdUnitStrideFaultOnlyFirstLoad            0      0.00%    100.00% # Class of committed instruction. (Count)
system.cpu0.commitStats0.committedInstType::SimdUnitStrideSegmentedLoad            0      0.00%    100.00% # Class of committed instruction. (Count)
system.cpu0.commitStats0.committedInstType::SimdUnitStrideSegmentedStore            0      0.00%    100.00% # Class of committed instruction. (Count)
system.cpu0.commitStats0.committedInstType::SimdUnitStrideSegmentedFaultOnlyFirstLoad            0      0.00%    100.00% # Class of committed instruction. (Count)
system.cpu0.commitStats0.committedInstType::SimdStrideSegmentedLoad            0      0.00%    100.00% # Class of committed instruction. (Count)
system.cpu0.commitStats0.committedInstType::SimdStrideSegmentedStore            0      0.00%    100.00% # Class of committed instruction. (Count)
system.cpu0.commitStats0.committedInstType::SimdExt            0      0.00%    100.00% # Class of committed instruction. (Count)
system.cpu0.commitStats0.committedInstType::SimdFloatExt            0      0.00%    100.00% # Class of committed instruction. (Count)
system.cpu0.commitStats0.committedInstType::SimdConfig            0      0.00%    100.00% # Class of committed instruction. (Count)
system.cpu0.commitStats0.committedInstType::total      1163170                       # Class of committed instruction. (Count)
system.cpu0.commitStats0.committedControl::IsControl       172347                       # Class of control type instructions committed (Count)
system.cpu0.commitStats0.committedControl::IsDirectControl       172099                       # Class of control type instructions committed (Count)
system.cpu0.commitStats0.committedControl::IsIndirectControl          248                       # Class of control type instructions committed (Count)
system.cpu0.commitStats0.committedControl::IsCondControl       151811                       # Class of control type instructions committed (Count)
system.cpu0.commitStats0.committedControl::IsUncondControl        20536                       # Class of control type instructions committed (Count)
system.cpu0.commitStats0.committedControl::IsCall          180                       # Class of control type instructions committed (Count)
system.cpu0.commitStats0.committedControl::IsReturn          175                       # Class of control type instructions committed (Count)
system.cpu0.exec_context.thread_0.numMatAluAccesses            0                       # Number of matrix alu accesses (Count)
system.cpu0.exec_context.thread_0.numCallsReturns          355                       # Number of times a function call or return occured (Count)
system.cpu0.exec_context.thread_0.numMatInsts            0                       # Number of matrix instructions (Count)
system.cpu0.exec_context.thread_0.numIdleCycles     0.002000                       # Number of idle cycles (Cycle)
system.cpu0.exec_context.thread_0.numBusyCycles 9580702.998000                       # Number of busy cycles (Cycle)
system.cpu0.exec_context.thread_0.notIdleFraction     1.000000                       # Percentage of non-idle cycles (Ratio)
system.cpu0.exec_context.thread_0.idleFraction     0.000000                       # Percentage of idle cycles (Ratio)
system.cpu0.executeStats0.numInsts                  0                       # Number of executed instructions (Count)
system.cpu0.executeStats0.numNop                    0                       # Number of nop insts executed (Count)
system.cpu0.executeStats0.numBranches               0                       # Number of branches executed (Count)
system.cpu0.executeStats0.numLoadInsts              0                       # Number of load instructions executed (Count)
system.cpu0.executeStats0.numStoreInsts        134850                       # Number of stores executed (Count)
system.cpu0.executeStats0.instRate                  0                       # Inst execution rate ((Count/Cycle))
system.cpu0.executeStats0.numFpAluAccesses         1354                       # Number of float alu accesses (Count)
system.cpu0.executeStats0.numFpRegReads          1462                       # Number of times the floating registers were read (Count)
system.cpu0.executeStats0.numFpRegWrites          785                       # Number of times the floating registers were written (Count)
system.cpu0.executeStats0.numIntAluAccesses      1152309                       # Number of integer alu accesses (Count)
system.cpu0.executeStats0.numIntRegReads      1214753                       # Number of times the integer registers were read (Count)
system.cpu0.executeStats0.numIntRegWrites       815631                       # Number of times the integer registers were written (Count)
system.cpu0.executeStats0.numMemRefs           134850                       # Number of memory refs (Count)
system.cpu0.executeStats0.numMiscRegReads       479759                       # Number of times the Misc registers were read (Count)
system.cpu0.executeStats0.numVecAluAccesses            0                       # Number of vector alu accesses (Count)
system.cpu0.executeStats0.numDiscardedOps            0                       # Number of ops (including micro ops) which were discarded before commit (Count)
system.cpu0.fetchStats0.numInsts               672113                       # Number of instructions fetched (thread level) (Count)
system.cpu0.fetchStats0.numOps                1163170                       # Number of ops (including micro ops) fetched (thread level) (Count)
system.cpu0.fetchStats0.fetchRate            0.070153                       # Number of inst fetches per cycle ((Count/Cycle))
system.cpu0.fetchStats0.numBranches            172347                       # Number of branches fetched (Count)
system.cpu0.fetchStats0.branchRate           0.017989                       # Number of branch fetches per cycle (Ratio)
system.cpu0.fetchStats0.numFetchSuspends            0                       # Number of times Execute suspended instruction fetching (Count)
system.cpu0.interrupts.clk_domain.clock          8000                       # Clock period in ticks (Tick)
system.cpu0.mmu.dtb.rdAccesses                 122304                       # TLB accesses on read requests (Count)
system.cpu0.mmu.dtb.wrAccesses                  12550                       # TLB accesses on write requests (Count)
system.cpu0.mmu.dtb.rdMisses                       15                       # TLB misses on read requests (Count)
system.cpu0.mmu.dtb.wrMisses                       11                       # TLB misses on write requests (Count)
system.cpu0.mmu.dtb.walker.power_state.pwrStateResidencyTicks::UNDEFINED   4790351500                       # Cumulative time (in ticks) in various power states (Tick)
system.cpu0.mmu.itb.rdAccesses                      0                       # TLB accesses on read requests (Count)
system.cpu0.mmu.itb.wrAccesses                 836702                       # TLB accesses on write requests (Count)
system.cpu0.mmu.itb.rdMisses                        0                       # TLB misses on read requests (Count)
system.cpu0.mmu.itb.wrMisses                       47                       # TLB misses on write requests (Count)
system.cpu0.mmu.itb.walker.power_state.pwrStateResidencyTicks::UNDEFINED   4790351500                       # Cumulative time (in ticks) in various power states (Tick)
system.cpu0.power_state.pwrStateResidencyTicks::ON   4790351500                       # Cumulative time (in ticks) in various power states (Tick)
system.cpu0.thread_0.numInsts                       0                       # Number of Instructions committed (Count)
system.cpu0.thread_0.numOps                         0                       # Number of Ops committed (Count)
system.cpu0.thread_0.numMemRefs                     0                       # Number of Memory References (Count)
system.cpu0.workload.numSyscalls                   15                       # Number of system calls (Count)
system.cpu1.numCycles                         9580169                       # Number of cpu cycles simulated (Cycle)
system.cpu1.cpi                             14.422579                       # CPI: cycles per instruction (core level) ((Cycle/Count))
system.cpu1.ipc                              0.069336                       # IPC: instructions per cycle (core level) ((Count/Cycle))
system.cpu1.numWorkItemsStarted                     0                       # Number of work items this cpu started (Count)
system.cpu1.numWorkItemsCompleted                   0                       # Number of work items this cpu completed (Count)
system.cpu1.commitStats0.numInsts              664248                       # Number of instructions committed (thread level) (Count)
system.cpu1.commitStats0.numOps               1145745                       # Number of ops (including micro ops) committed (thread level) (Count)
system.cpu1.commitStats0.numInstsNotNOP             0                       # Number of instructions committed excluding NOPs or prefetches (Count)
system.cpu1.commitStats0.numOpsNotNOP               0                       # Number of Ops (including micro ops) Simulated (Count)
system.cpu1.commitStats0.cpi                14.422579                       # CPI: cycles per instruction (thread level) ((Cycle/Count))
system.cpu1.commitStats0.ipc                 0.069336                       # IPC: instructions per cycle (thread level) ((Count/Cycle))
system.cpu1.commitStats0.numMemRefs                 0                       # Number of memory references committed (Count)
system.cpu1.commitStats0.numFpInsts              1354                       # Number of float instructions (Count)
system.cpu1.commitStats0.numIntInsts          1134884                       # Number of integer instructions (Count)
system.cpu1.commitStats0.numLoadInsts          115788                       # Number of load instructions (Count)
system.cpu1.commitStats0.numStoreInsts          11893                       # Number of store instructions (Count)
system.cpu1.commitStats0.numVecInsts                0                       # Number of vector instructions (Count)
system.cpu1.commitStats0.committedInstType::No_OpClass        10210      0.89%      0.89% # Class of committed instruction. (Count)
system.cpu1.commitStats0.committedInstType::IntAlu      1007267     87.91%     88.80% # Class of committed instruction. (Count)
system.cpu1.commitStats0.committedInstType::IntMult           13      0.00%     88.81% # Class of committed instruction. (Count)
system.cpu1.commitStats0.committedInstType::IntDiv           21      0.00%     88.81% # Class of committed instruction. (Count)
system.cpu1.commitStats0.committedInstType::FloatAdd          172      0.02%     88.82% # Class of committed instruction. (Count)
system.cpu1.commitStats0.committedInstType::FloatCmp            0      0.00%     88.82% # Class of committed instruction. (Count)
system.cpu1.commitStats0.committedInstType::FloatCvt            0      0.00%     88.82% # Class of committed instruction. (Count)
system.cpu1.commitStats0.committedInstType::FloatMult            0      0.00%     88.82% # Class of committed instruction. (Count)
system.cpu1.commitStats0.committedInstType::FloatMultAcc            0      0.00%     88.82% # Class of committed instruction. (Count)
system.cpu1.commitStats0.committedInstType::FloatDiv            0      0.00%     88.82% # Class of committed instruction. (Count)
system.cpu1.commitStats0.committedInstType::FloatMisc            0      0.00%     88.82% # Class of committed instruction. (Count)
system.cpu1.commitStats0.committedInstType::FloatSqrt            0      0.00%     88.82% # Class of committed instruction. (Count)
system.cpu1.commitStats0.committedInstType::SimdAdd            8      0.00%     88.82% # Class of committed instruction. (Count)
system.cpu1.commitStats0.committedInstType::SimdAddAcc            0      0.00%     88.82% # Class of committed instruction. (Count)
system.cpu1.commitStats0.committedInstType::SimdAlu           96      0.01%     88.83% # Class of committed instruction. (Count)
system.cpu1.commitStats0.committedInstType::SimdCmp            0      0.00%     88.83% # Class of committed instruction. (Count)
system.cpu1.commitStats0.committedInstType::SimdCvt           48      0.00%     88.84% # Class of committed instruction. (Count)
system.cpu1.commitStats0.committedInstType::SimdMisc          229      0.02%     88.86% # Class of committed instruction. (Count)
system.cpu1.commitStats0.committedInstType::SimdMult            0      0.00%     88.86% # Class of committed instruction. (Count)
system.cpu1.commitStats0.committedInstType::SimdMultAcc            0      0.00%     88.86% # Class of committed instruction. (Count)
system.cpu1.commitStats0.committedInstType::SimdMatMultAcc            0      0.00%     88.86% # Class of committed instruction. (Count)
system.cpu1.commitStats0.committedInstType::SimdShift            0      0.00%     88.86% # Class of committed instruction. (Count)
system.cpu1.commitStats0.committedInstType::SimdShiftAcc            0      0.00%     88.86% # Class of committed instruction. (Count)
system.cpu1.commitStats0.committedInstType::SimdDiv            0      0.00%     88.86% # Class of committed instruction. (Count)
system.cpu1.commitStats0.committedInstType::SimdSqrt            0      0.00%     88.86% # Class of committed instruction. (Count)
system.cpu1.commitStats0.committedInstType::SimdFloatAdd            0      0.00%     88.86% # Class of committed instruction. (Count)
system.cpu1.commitStats0.committedInstType::SimdFloatAlu            0      0.00%     88.86% # Class of committed instruction. (Count)
system.cpu1.commitStats0.committedInstType::SimdFloatCmp            0      0.00%     88.86% # Class of committed instruction. (Count)
system.cpu1.commitStats0.committedInstType::SimdFloatCvt            0      0.00%     88.86% # Class of committed instruction. (Count)
system.cpu1.commitStats0.committedInstType::SimdFloatDiv            0      0.00%     88.86% # Class of committed instruction. (Count)
system.cpu1.commitStats0.committedInstType::SimdFloatMisc            0      0.00%     88.86% # Class of committed instruction. (Count)
system.cpu1.commitStats0.committedInstType::SimdFloatMult            0      0.00%     88.86% # Class of committed instruction. (Count)
system.cpu1.commitStats0.committedInstType::SimdFloatMultAcc            0      0.00%     88.86% # Class of committed instruction. (Count)
system.cpu1.commitStats0.committedInstType::SimdFloatMatMultAcc            0      0.00%     88.86% # Class of committed instruction. (Count)
system.cpu1.commitStats0.committedInstType::SimdFloatSqrt            0      0.00%     88.86% # Class of committed instruction. (Count)
system.cpu1.commitStats0.committedInstType::SimdReduceAdd            0      0.00%     88.86% # Class of committed instruction. (Count)
system.cpu1.commitStats0.committedInstType::SimdReduceAlu            0      0.00%     88.86% # Class of committed instruction. (Count)
system.cpu1.commitStats0.committedInstType::SimdReduceCmp            0      0.00%     88.86% # Class of committed instruction. (Count)
system.cpu1.commitStats0.committedInstType::SimdFloatReduceAdd            0      0.00%     88.86% # Class of committed instruction. (Count)
system.cpu1.commitStats0.committedInstType::SimdFloatReduceCmp            0      0.00%     88.86% # Class of committed instruction. (Count)
system.cpu1.commitStats0.committedInstType::SimdAes            0      0.00%     88.86% # Class of committed instruction. (Count)
system.cpu1.commitStats0.committedInstType::SimdAesMix            0      0.00%     88.86% # Class of committed instruction. (Count)
system.cpu1.commitStats0.committedInstType::SimdSha1Hash            0      0.00%     88.86% # Class of committed instruction. (Count)
system.cpu1.commitStats0.committedInstType::SimdSha1Hash2            0      0.00%     88.86% # Class of committed instruction. (Count)
system.cpu1.commitStats0.committedInstType::SimdSha256Hash            0      0.00%     88.86% # Class of committed instruction. (Count)
system.cpu1.commitStats0.committedInstType::SimdSha256Hash2            0      0.00%     88.86% # Class of committed instruction. (Count)
system.cpu1.commitStats0.committedInstType::SimdShaSigma2            0      0.00%     88.86% # Class of committed instruction. (Count)
system.cpu1.commitStats0.committedInstType::SimdShaSigma3            0      0.00%     88.86% # Class of committed instruction. (Count)
system.cpu1.commitStats0.committedInstType::SimdPredAlu            0      0.00%     88.86% # Class of committed instruction. (Count)
system.cpu1.commitStats0.committedInstType::Matrix            0      0.00%     88.86% # Class of committed instruction. (Count)
system.cpu1.commitStats0.committedInstType::MatrixMov            0      0.00%     88.86% # Class of committed instruction. (Count)
system.cpu1.commitStats0.committedInstType::MatrixOP            0      0.00%     88.86% # Class of committed instruction. (Count)
system.cpu1.commitStats0.committedInstType::MemRead       115667     10.10%     98.95% # Class of committed instruction. (Count)
system.cpu1.commitStats0.committedInstType::MemWrite        11370      0.99%     99.94% # Class of committed instruction. (Count)
system.cpu1.commitStats0.committedInstType::FloatMemRead          121      0.01%     99.95% # Class of committed instruction. (Count)
system.cpu1.commitStats0.committedInstType::FloatMemWrite          523      0.05%    100.00% # Class of committed instruction. (Count)
system.cpu1.commitStats0.committedInstType::IprAccess            0      0.00%    100.00% # Class of committed instruction. (Count)
system.cpu1.commitStats0.committedInstType::InstPrefetch            0      0.00%    100.00% # Class of committed instruction. (Count)
system.cpu1.commitStats0.committedInstType::SimdUnitStrideLoad            0      0.00%    100.00% # Class of committed instruction. (Count)
system.cpu1.commitStats0.committedInstType::SimdUnitStrideStore            0      0.00%    100.00% # Class of committed instruction. (Count)
system.cpu1.commitStats0.committedInstType::SimdUnitStrideMaskLoad            0      0.00%    100.00% # Class of committed instruction. (Count)
system.cpu1.commitStats0.committedInstType::SimdUnitStrideMaskStore            0      0.00%    100.00% # Class of committed instruction. (Count)
system.cpu1.commitStats0.committedInstType::SimdStridedLoad            0      0.00%    100.00% # Class of committed instruction. (Count)
system.cpu1.commitStats0.committedInstType::SimdStridedStore            0      0.00%    100.00% # Class of committed instruction. (Count)
system.cpu1.commitStats0.committedInstType::SimdIndexedLoad            0      0.00%    100.00% # Class of committed instruction. (Count)
system.cpu1.commitStats0.committedInstType::SimdIndexedStore            0      0.00%    100.00% # Class of committed instruction. (Count)
system.cpu1.commitStats0.committedInstType::SimdWholeRegisterLoad            0      0.00%    100.00% # Class of committed instruction. (Count)
system.cpu1.commitStats0.committedInstType::SimdWholeRegisterStore            0      0.00%    100.00% # Class of committed instruction. (Count)
system.cpu1.commitStats0.committedInstType::SimdUnitStrideFaultOnlyFirstLoad            0      0.00%    100.00% # Class of committed instruction. (Count)
system.cpu1.commitStats0.committedInstType::SimdUnitStrideSegmentedLoad            0      0.00%    100.00% # Class of committed instruction. (Count)
system.cpu1.commitStats0.committedInstType::SimdUnitStrideSegmentedStore            0      0.00%    100.00% # Class of committed instruction. (Count)
system.cpu1.commitStats0.committedInstType::SimdUnitStrideSegmentedFaultOnlyFirstLoad            0      0.00%    100.00% # Class of committed instruction. (Count)
system.cpu1.commitStats0.committedInstType::SimdStrideSegmentedLoad            0      0.00%    100.00% # Class of committed instruction. (Count)
system.cpu1.commitStats0.committedInstType::SimdStrideSegmentedStore            0      0.00%    100.00% # Class of committed instruction. (Count)
system.cpu1.commitStats0.committedInstType::SimdExt            0      0.00%    100.00% # Class of committed instruction. (Count)
system.cpu1.commitStats0.committedInstType::SimdFloatExt            0      0.00%    100.00% # Class of committed instruction. (Count)
system.cpu1.commitStats0.committedInstType::SimdConfig            0      0.00%    100.00% # Class of committed instruction. (Count)
system.cpu1.commitStats0.committedInstType::total      1145745                       # Class of committed instruction. (Count)
system.cpu1.commitStats0.committedControl::IsControl       170138                       # Class of control type instructions committed (Count)
system.cpu1.commitStats0.committedControl::IsDirectControl       169890                       # Class of control type instructions committed (Count)
system.cpu1.commitStats0.committedControl::IsIndirectControl          248                       # Class of control type instructions committed (Count)
system.cpu1.commitStats0.committedControl::IsCondControl       149603                       # Class of control type instructions committed (Count)
system.cpu1.commitStats0.committedControl::IsUncondControl        20535                       # Class of control type instructions committed (Count)
system.cpu1.commitStats0.committedControl::IsCall          180                       # Class of control type instructions committed (Count)
system.cpu1.commitStats0.committedControl::IsReturn          175                       # Class of control type instructions committed (Count)
system.cpu1.exec_context.thread_0.numMatAluAccesses            0                       # Number of matrix alu accesses (Count)
system.cpu1.exec_context.thread_0.numCallsReturns          355                       # Number of times a function call or return occured (Count)
system.cpu1.exec_context.thread_0.numMatInsts            0                       # Number of matrix instructions (Count)
system.cpu1.exec_context.thread_0.numIdleCycles   533.972236                       # Number of idle cycles (Cycle)
system.cpu1.exec_context.thread_0.numBusyCycles 9579635.027764                       # Number of busy cycles (Cycle)
system.cpu1.exec_context.thread_0.notIdleFraction     0.999944                       # Percentage of non-idle cycles (Ratio)
system.cpu1.exec_context.thread_0.idleFraction     0.000056                       # Percentage of idle cycles (Ratio)
system.cpu1.executeStats0.numInsts                  0                       # Number of executed instructions (Count)
system.cpu1.executeStats0.numNop                    0                       # Number of nop insts executed (Count)
system.cpu1.executeStats0.numBranches               0                       # Number of branches executed (Count)
system.cpu1.executeStats0.numLoadInsts              0                       # Number of load instructions executed (Count)
system.cpu1.executeStats0.numStoreInsts        127681                       # Number of stores executed (Count)
system.cpu1.executeStats0.instRate                  0                       # Inst execution rate ((Count/Cycle))
system.cpu1.executeStats0.numFpAluAccesses         1354                       # Number of float alu accesses (Count)
system.cpu1.executeStats0.numFpRegReads          1462                       # Number of times the floating registers were read (Count)
system.cpu1.executeStats0.numFpRegWrites          785                       # Number of times the floating registers were written (Count)
system.cpu1.executeStats0.numIntAluAccesses      1134884                       # Number of integer alu accesses (Count)
system.cpu1.executeStats0.numIntRegReads      1196811                       # Number of times the integer registers were read (Count)
system.cpu1.executeStats0.numIntRegWrites       803281                       # Number of times the integer registers were written (Count)
system.cpu1.executeStats0.numMemRefs           127681                       # Number of memory refs (Count)
system.cpu1.executeStats0.numMiscRegReads       468172                       # Number of times the Misc registers were read (Count)
system.cpu1.executeStats0.numVecAluAccesses            0                       # Number of vector alu accesses (Count)
system.cpu1.executeStats0.numDiscardedOps            0                       # Number of ops (including micro ops) which were discarded before commit (Count)
system.cpu1.fetchStats0.numInsts               664248                       # Number of instructions fetched (thread level) (Count)
system.cpu1.fetchStats0.numOps                1145745                       # Number of ops (including micro ops) fetched (thread level) (Count)
system.cpu1.fetchStats0.fetchRate            0.069336                       # Number of inst fetches per cycle ((Count/Cycle))
system.cpu1.fetchStats0.numBranches            170138                       # Number of branches fetched (Count)
system.cpu1.fetchStats0.branchRate           0.017759                       # Number of branch fetches per cycle (Ratio)
system.cpu1.fetchStats0.numFetchSuspends            0                       # Number of times Execute suspended instruction fetching (Count)
system.cpu1.interrupts.clk_domain.clock          8000                       # Clock period in ticks (Tick)
system.cpu1.mmu.dtb.rdAccesses                 115792                       # TLB accesses on read requests (Count)
system.cpu1.mmu.dtb.wrAccesses                  11893                       # TLB accesses on write requests (Count)
system.cpu1.mmu.dtb.rdMisses                       17                       # TLB misses on read requests (Count)
system.cpu1.mmu.dtb.wrMisses                        9                       # TLB misses on write requests (Count)
system.cpu1.mmu.dtb.walker.power_state.pwrStateResidencyTicks::UNDEFINED   4790351500                       # Cumulative time (in ticks) in various power states (Tick)
system.cpu1.mmu.itb.rdAccesses                      0                       # TLB accesses on read requests (Count)
system.cpu1.mmu.itb.wrAccesses                 825649                       # TLB accesses on write requests (Count)
system.cpu1.mmu.itb.rdMisses                        0                       # TLB misses on read requests (Count)
system.cpu1.mmu.itb.wrMisses                       47                       # TLB misses on write requests (Count)
system.cpu1.mmu.itb.walker.power_state.pwrStateResidencyTicks::UNDEFINED   4790351500                       # Cumulative time (in ticks) in various power states (Tick)
system.cpu1.power_state.pwrStateResidencyTicks::ON   4790351500                       # Cumulative time (in ticks) in various power states (Tick)
system.cpu1.thread_0.numInsts                       0                       # Number of Instructions committed (Count)
system.cpu1.thread_0.numOps                         0                       # Number of Ops committed (Count)
system.cpu1.thread_0.numMemRefs                     0                       # Number of Memory References (Count)
system.cpu1.workload.numSyscalls                   15                       # Number of system calls (Count)
system.cpu10.numCycles                        9579960                       # Number of cpu cycles simulated (Cycle)
system.cpu10.cpi                            14.742142                       # CPI: cycles per instruction (core level) ((Cycle/Count))
system.cpu10.ipc                             0.067833                       # IPC: instructions per cycle (core level) ((Count/Cycle))
system.cpu10.numWorkItemsStarted                    0                       # Number of work items this cpu started (Count)
system.cpu10.numWorkItemsCompleted                  0                       # Number of work items this cpu completed (Count)
system.cpu10.commitStats0.numInsts             649835                       # Number of instructions committed (thread level) (Count)
system.cpu10.commitStats0.numOps              1112115                       # Number of ops (including micro ops) committed (thread level) (Count)
system.cpu10.commitStats0.numInstsNotNOP            0                       # Number of instructions committed excluding NOPs or prefetches (Count)
system.cpu10.commitStats0.numOpsNotNOP              0                       # Number of Ops (including micro ops) Simulated (Count)
system.cpu10.commitStats0.cpi               14.742142                       # CPI: cycles per instruction (thread level) ((Cycle/Count))
system.cpu10.commitStats0.ipc                0.067833                       # IPC: instructions per cycle (thread level) ((Count/Cycle))
system.cpu10.commitStats0.numMemRefs                0                       # Number of memory references committed (Count)
system.cpu10.commitStats0.numFpInsts             1354                       # Number of float instructions (Count)
system.cpu10.commitStats0.numIntInsts         1101254                       # Number of integer instructions (Count)
system.cpu10.commitStats0.numLoadInsts         106276                       # Number of load instructions (Count)
system.cpu10.commitStats0.numStoreInsts         11893                       # Number of store instructions (Count)
system.cpu10.commitStats0.numVecInsts               0                       # Number of vector instructions (Count)
system.cpu10.commitStats0.committedInstType::No_OpClass        10210      0.92%      0.92% # Class of committed instruction. (Count)
system.cpu10.commitStats0.committedInstType::IntAlu       983148     88.40%     89.32% # Class of committed instruction. (Count)
system.cpu10.commitStats0.committedInstType::IntMult           14      0.00%     89.32% # Class of committed instruction. (Count)
system.cpu10.commitStats0.committedInstType::IntDiv           21      0.00%     89.32% # Class of committed instruction. (Count)
system.cpu10.commitStats0.committedInstType::FloatAdd          172      0.02%     89.34% # Class of committed instruction. (Count)
system.cpu10.commitStats0.committedInstType::FloatCmp            0      0.00%     89.34% # Class of committed instruction. (Count)
system.cpu10.commitStats0.committedInstType::FloatCvt            0      0.00%     89.34% # Class of committed instruction. (Count)
system.cpu10.commitStats0.committedInstType::FloatMult            0      0.00%     89.34% # Class of committed instruction. (Count)
system.cpu10.commitStats0.committedInstType::FloatMultAcc            0      0.00%     89.34% # Class of committed instruction. (Count)
system.cpu10.commitStats0.committedInstType::FloatDiv            0      0.00%     89.34% # Class of committed instruction. (Count)
system.cpu10.commitStats0.committedInstType::FloatMisc            0      0.00%     89.34% # Class of committed instruction. (Count)
system.cpu10.commitStats0.committedInstType::FloatSqrt            0      0.00%     89.34% # Class of committed instruction. (Count)
system.cpu10.commitStats0.committedInstType::SimdAdd            8      0.00%     89.34% # Class of committed instruction. (Count)
system.cpu10.commitStats0.committedInstType::SimdAddAcc            0      0.00%     89.34% # Class of committed instruction. (Count)
system.cpu10.commitStats0.committedInstType::SimdAlu           96      0.01%     89.35% # Class of committed instruction. (Count)
system.cpu10.commitStats0.committedInstType::SimdCmp            0      0.00%     89.35% # Class of committed instruction. (Count)
system.cpu10.commitStats0.committedInstType::SimdCvt           48      0.00%     89.35% # Class of committed instruction. (Count)
system.cpu10.commitStats0.committedInstType::SimdMisc          229      0.02%     89.37% # Class of committed instruction. (Count)
system.cpu10.commitStats0.committedInstType::SimdMult            0      0.00%     89.37% # Class of committed instruction. (Count)
system.cpu10.commitStats0.committedInstType::SimdMultAcc            0      0.00%     89.37% # Class of committed instruction. (Count)
system.cpu10.commitStats0.committedInstType::SimdMatMultAcc            0      0.00%     89.37% # Class of committed instruction. (Count)
system.cpu10.commitStats0.committedInstType::SimdShift            0      0.00%     89.37% # Class of committed instruction. (Count)
system.cpu10.commitStats0.committedInstType::SimdShiftAcc            0      0.00%     89.37% # Class of committed instruction. (Count)
system.cpu10.commitStats0.committedInstType::SimdDiv            0      0.00%     89.37% # Class of committed instruction. (Count)
system.cpu10.commitStats0.committedInstType::SimdSqrt            0      0.00%     89.37% # Class of committed instruction. (Count)
system.cpu10.commitStats0.committedInstType::SimdFloatAdd            0      0.00%     89.37% # Class of committed instruction. (Count)
system.cpu10.commitStats0.committedInstType::SimdFloatAlu            0      0.00%     89.37% # Class of committed instruction. (Count)
system.cpu10.commitStats0.committedInstType::SimdFloatCmp            0      0.00%     89.37% # Class of committed instruction. (Count)
system.cpu10.commitStats0.committedInstType::SimdFloatCvt            0      0.00%     89.37% # Class of committed instruction. (Count)
system.cpu10.commitStats0.committedInstType::SimdFloatDiv            0      0.00%     89.37% # Class of committed instruction. (Count)
system.cpu10.commitStats0.committedInstType::SimdFloatMisc            0      0.00%     89.37% # Class of committed instruction. (Count)
system.cpu10.commitStats0.committedInstType::SimdFloatMult            0      0.00%     89.37% # Class of committed instruction. (Count)
system.cpu10.commitStats0.committedInstType::SimdFloatMultAcc            0      0.00%     89.37% # Class of committed instruction. (Count)
system.cpu10.commitStats0.committedInstType::SimdFloatMatMultAcc            0      0.00%     89.37% # Class of committed instruction. (Count)
system.cpu10.commitStats0.committedInstType::SimdFloatSqrt            0      0.00%     89.37% # Class of committed instruction. (Count)
system.cpu10.commitStats0.committedInstType::SimdReduceAdd            0      0.00%     89.37% # Class of committed instruction. (Count)
system.cpu10.commitStats0.committedInstType::SimdReduceAlu            0      0.00%     89.37% # Class of committed instruction. (Count)
system.cpu10.commitStats0.committedInstType::SimdReduceCmp            0      0.00%     89.37% # Class of committed instruction. (Count)
system.cpu10.commitStats0.committedInstType::SimdFloatReduceAdd            0      0.00%     89.37% # Class of committed instruction. (Count)
system.cpu10.commitStats0.committedInstType::SimdFloatReduceCmp            0      0.00%     89.37% # Class of committed instruction. (Count)
system.cpu10.commitStats0.committedInstType::SimdAes            0      0.00%     89.37% # Class of committed instruction. (Count)
system.cpu10.commitStats0.committedInstType::SimdAesMix            0      0.00%     89.37% # Class of committed instruction. (Count)
system.cpu10.commitStats0.committedInstType::SimdSha1Hash            0      0.00%     89.37% # Class of committed instruction. (Count)
system.cpu10.commitStats0.committedInstType::SimdSha1Hash2            0      0.00%     89.37% # Class of committed instruction. (Count)
system.cpu10.commitStats0.committedInstType::SimdSha256Hash            0      0.00%     89.37% # Class of committed instruction. (Count)
system.cpu10.commitStats0.committedInstType::SimdSha256Hash2            0      0.00%     89.37% # Class of committed instruction. (Count)
system.cpu10.commitStats0.committedInstType::SimdShaSigma2            0      0.00%     89.37% # Class of committed instruction. (Count)
system.cpu10.commitStats0.committedInstType::SimdShaSigma3            0      0.00%     89.37% # Class of committed instruction. (Count)
system.cpu10.commitStats0.committedInstType::SimdPredAlu            0      0.00%     89.37% # Class of committed instruction. (Count)
system.cpu10.commitStats0.committedInstType::Matrix            0      0.00%     89.37% # Class of committed instruction. (Count)
system.cpu10.commitStats0.committedInstType::MatrixMov            0      0.00%     89.37% # Class of committed instruction. (Count)
system.cpu10.commitStats0.committedInstType::MatrixOP            0      0.00%     89.37% # Class of committed instruction. (Count)
system.cpu10.commitStats0.committedInstType::MemRead       106155      9.55%     98.92% # Class of committed instruction. (Count)
system.cpu10.commitStats0.committedInstType::MemWrite        11370      1.02%     99.94% # Class of committed instruction. (Count)
system.cpu10.commitStats0.committedInstType::FloatMemRead          121      0.01%     99.95% # Class of committed instruction. (Count)
system.cpu10.commitStats0.committedInstType::FloatMemWrite          523      0.05%    100.00% # Class of committed instruction. (Count)
system.cpu10.commitStats0.committedInstType::IprAccess            0      0.00%    100.00% # Class of committed instruction. (Count)
system.cpu10.commitStats0.committedInstType::InstPrefetch            0      0.00%    100.00% # Class of committed instruction. (Count)
system.cpu10.commitStats0.committedInstType::SimdUnitStrideLoad            0      0.00%    100.00% # Class of committed instruction. (Count)
system.cpu10.commitStats0.committedInstType::SimdUnitStrideStore            0      0.00%    100.00% # Class of committed instruction. (Count)
system.cpu10.commitStats0.committedInstType::SimdUnitStrideMaskLoad            0      0.00%    100.00% # Class of committed instruction. (Count)
system.cpu10.commitStats0.committedInstType::SimdUnitStrideMaskStore            0      0.00%    100.00% # Class of committed instruction. (Count)
system.cpu10.commitStats0.committedInstType::SimdStridedLoad            0      0.00%    100.00% # Class of committed instruction. (Count)
system.cpu10.commitStats0.committedInstType::SimdStridedStore            0      0.00%    100.00% # Class of committed instruction. (Count)
system.cpu10.commitStats0.committedInstType::SimdIndexedLoad            0      0.00%    100.00% # Class of committed instruction. (Count)
system.cpu10.commitStats0.committedInstType::SimdIndexedStore            0      0.00%    100.00% # Class of committed instruction. (Count)
system.cpu10.commitStats0.committedInstType::SimdWholeRegisterLoad            0      0.00%    100.00% # Class of committed instruction. (Count)
system.cpu10.commitStats0.committedInstType::SimdWholeRegisterStore            0      0.00%    100.00% # Class of committed instruction. (Count)
system.cpu10.commitStats0.committedInstType::SimdUnitStrideFaultOnlyFirstLoad            0      0.00%    100.00% # Class of committed instruction. (Count)
system.cpu10.commitStats0.committedInstType::SimdUnitStrideSegmentedLoad            0      0.00%    100.00% # Class of committed instruction. (Count)
system.cpu10.commitStats0.committedInstType::SimdUnitStrideSegmentedStore            0      0.00%    100.00% # Class of committed instruction. (Count)
system.cpu10.commitStats0.committedInstType::SimdUnitStrideSegmentedFaultOnlyFirstLoad            0      0.00%    100.00% # Class of committed instruction. (Count)
system.cpu10.commitStats0.committedInstType::SimdStrideSegmentedLoad            0      0.00%    100.00% # Class of committed instruction. (Count)
system.cpu10.commitStats0.committedInstType::SimdStrideSegmentedStore            0      0.00%    100.00% # Class of committed instruction. (Count)
system.cpu10.commitStats0.committedInstType::SimdExt            0      0.00%    100.00% # Class of committed instruction. (Count)
system.cpu10.commitStats0.committedInstType::SimdFloatExt            0      0.00%    100.00% # Class of committed instruction. (Count)
system.cpu10.commitStats0.committedInstType::SimdConfig            0      0.00%    100.00% # Class of committed instruction. (Count)
system.cpu10.commitStats0.committedInstType::total      1112115                       # Class of committed instruction. (Count)
system.cpu10.commitStats0.committedControl::IsControl       165336                       # Class of control type instructions committed (Count)
system.cpu10.commitStats0.committedControl::IsDirectControl       165088                       # Class of control type instructions committed (Count)
system.cpu10.commitStats0.committedControl::IsIndirectControl          248                       # Class of control type instructions committed (Count)
system.cpu10.commitStats0.committedControl::IsCondControl       144801                       # Class of control type instructions committed (Count)
system.cpu10.commitStats0.committedControl::IsUncondControl        20535                       # Class of control type instructions committed (Count)
system.cpu10.commitStats0.committedControl::IsCall          180                       # Class of control type instructions committed (Count)
system.cpu10.commitStats0.committedControl::IsReturn          175                       # Class of control type instructions committed (Count)
system.cpu10.exec_context.thread_0.numMatAluAccesses            0                       # Number of matrix alu accesses (Count)
system.cpu10.exec_context.thread_0.numCallsReturns          355                       # Number of times a function call or return occured (Count)
system.cpu10.exec_context.thread_0.numMatInsts            0                       # Number of matrix instructions (Count)
system.cpu10.exec_context.thread_0.numIdleCycles   742.944379                       # Number of idle cycles (Cycle)
system.cpu10.exec_context.thread_0.numBusyCycles 9579217.055621                       # Number of busy cycles (Cycle)
system.cpu10.exec_context.thread_0.notIdleFraction     0.999922                       # Percentage of non-idle cycles (Ratio)
system.cpu10.exec_context.thread_0.idleFraction     0.000078                       # Percentage of idle cycles (Ratio)
system.cpu10.executeStats0.numInsts                 0                       # Number of executed instructions (Count)
system.cpu10.executeStats0.numNop                   0                       # Number of nop insts executed (Count)
system.cpu10.executeStats0.numBranches              0                       # Number of branches executed (Count)
system.cpu10.executeStats0.numLoadInsts             0                       # Number of load instructions executed (Count)
system.cpu10.executeStats0.numStoreInsts       118169                       # Number of stores executed (Count)
system.cpu10.executeStats0.instRate                 0                       # Inst execution rate ((Count/Cycle))
system.cpu10.executeStats0.numFpAluAccesses         1354                       # Number of float alu accesses (Count)
system.cpu10.executeStats0.numFpRegReads         1462                       # Number of times the floating registers were read (Count)
system.cpu10.executeStats0.numFpRegWrites          785                       # Number of times the floating registers were written (Count)
system.cpu10.executeStats0.numIntAluAccesses      1101254                       # Number of integer alu accesses (Count)
system.cpu10.executeStats0.numIntRegReads      1168094                       # Number of times the integer registers were read (Count)
system.cpu10.executeStats0.numIntRegWrites       779257                       # Number of times the integer registers were written (Count)
system.cpu10.executeStats0.numMemRefs          118169                       # Number of memory refs (Count)
system.cpu10.executeStats0.numMiscRegReads       449056                       # Number of times the Misc registers were read (Count)
system.cpu10.executeStats0.numVecAluAccesses            0                       # Number of vector alu accesses (Count)
system.cpu10.executeStats0.numDiscardedOps            0                       # Number of ops (including micro ops) which were discarded before commit (Count)
system.cpu10.fetchStats0.numInsts              649835                       # Number of instructions fetched (thread level) (Count)
system.cpu10.fetchStats0.numOps               1112115                       # Number of ops (including micro ops) fetched (thread level) (Count)
system.cpu10.fetchStats0.fetchRate           0.067833                       # Number of inst fetches per cycle ((Count/Cycle))
system.cpu10.fetchStats0.numBranches           165336                       # Number of branches fetched (Count)
system.cpu10.fetchStats0.branchRate          0.017259                       # Number of branch fetches per cycle (Ratio)
system.cpu10.fetchStats0.numFetchSuspends            0                       # Number of times Execute suspended instruction fetching (Count)
system.cpu10.interrupts.clk_domain.clock         8000                       # Clock period in ticks (Tick)
system.cpu10.mmu.dtb.rdAccesses                106280                       # TLB accesses on read requests (Count)
system.cpu10.mmu.dtb.wrAccesses                 11893                       # TLB accesses on write requests (Count)
system.cpu10.mmu.dtb.rdMisses                      17                       # TLB misses on read requests (Count)
system.cpu10.mmu.dtb.wrMisses                       9                       # TLB misses on write requests (Count)
system.cpu10.mmu.dtb.walker.power_state.pwrStateResidencyTicks::UNDEFINED   4790351500                       # Cumulative time (in ticks) in various power states (Tick)
system.cpu10.mmu.itb.rdAccesses                     0                       # TLB accesses on read requests (Count)
system.cpu10.mmu.itb.wrAccesses                806427                       # TLB accesses on write requests (Count)
system.cpu10.mmu.itb.rdMisses                       0                       # TLB misses on read requests (Count)
system.cpu10.mmu.itb.wrMisses                      46                       # TLB misses on write requests (Count)
system.cpu10.mmu.itb.walker.power_state.pwrStateResidencyTicks::UNDEFINED   4790351500                       # Cumulative time (in ticks) in various power states (Tick)
system.cpu10.power_state.pwrStateResidencyTicks::ON   4790351500                       # Cumulative time (in ticks) in various power states (Tick)
system.cpu10.thread_0.numInsts                      0                       # Number of Instructions committed (Count)
system.cpu10.thread_0.numOps                        0                       # Number of Ops committed (Count)
system.cpu10.thread_0.numMemRefs                    0                       # Number of Memory References (Count)
system.cpu10.workload.numSyscalls                  15                       # Number of system calls (Count)
system.cpu11.numCycles                        9580027                       # Number of cpu cycles simulated (Cycle)
system.cpu11.cpi                            14.757711                       # CPI: cycles per instruction (core level) ((Cycle/Count))
system.cpu11.ipc                             0.067761                       # IPC: instructions per cycle (core level) ((Count/Cycle))
system.cpu11.numWorkItemsStarted                    0                       # Number of work items this cpu started (Count)
system.cpu11.numWorkItemsCompleted                  0                       # Number of work items this cpu completed (Count)
system.cpu11.commitStats0.numInsts             649154                       # Number of instructions committed (thread level) (Count)
system.cpu11.commitStats0.numOps              1110526                       # Number of ops (including micro ops) committed (thread level) (Count)
system.cpu11.commitStats0.numInstsNotNOP            0                       # Number of instructions committed excluding NOPs or prefetches (Count)
system.cpu11.commitStats0.numOpsNotNOP              0                       # Number of Ops (including micro ops) Simulated (Count)
system.cpu11.commitStats0.cpi               14.757711                       # CPI: cycles per instruction (thread level) ((Cycle/Count))
system.cpu11.commitStats0.ipc                0.067761                       # IPC: instructions per cycle (thread level) ((Count/Cycle))
system.cpu11.commitStats0.numMemRefs                0                       # Number of memory references committed (Count)
system.cpu11.commitStats0.numFpInsts             1354                       # Number of float instructions (Count)
system.cpu11.commitStats0.numIntInsts         1099665                       # Number of integer instructions (Count)
system.cpu11.commitStats0.numLoadInsts         105801                       # Number of load instructions (Count)
system.cpu11.commitStats0.numStoreInsts         11893                       # Number of store instructions (Count)
system.cpu11.commitStats0.numVecInsts               0                       # Number of vector instructions (Count)
system.cpu11.commitStats0.committedInstType::No_OpClass        10210      0.92%      0.92% # Class of committed instruction. (Count)
system.cpu11.commitStats0.committedInstType::IntAlu       982034     88.43%     89.35% # Class of committed instruction. (Count)
system.cpu11.commitStats0.committedInstType::IntMult           14      0.00%     89.35% # Class of committed instruction. (Count)
system.cpu11.commitStats0.committedInstType::IntDiv           21      0.00%     89.35% # Class of committed instruction. (Count)
system.cpu11.commitStats0.committedInstType::FloatAdd          172      0.02%     89.37% # Class of committed instruction. (Count)
system.cpu11.commitStats0.committedInstType::FloatCmp            0      0.00%     89.37% # Class of committed instruction. (Count)
system.cpu11.commitStats0.committedInstType::FloatCvt            0      0.00%     89.37% # Class of committed instruction. (Count)
system.cpu11.commitStats0.committedInstType::FloatMult            0      0.00%     89.37% # Class of committed instruction. (Count)
system.cpu11.commitStats0.committedInstType::FloatMultAcc            0      0.00%     89.37% # Class of committed instruction. (Count)
system.cpu11.commitStats0.committedInstType::FloatDiv            0      0.00%     89.37% # Class of committed instruction. (Count)
system.cpu11.commitStats0.committedInstType::FloatMisc            0      0.00%     89.37% # Class of committed instruction. (Count)
system.cpu11.commitStats0.committedInstType::FloatSqrt            0      0.00%     89.37% # Class of committed instruction. (Count)
system.cpu11.commitStats0.committedInstType::SimdAdd            8      0.00%     89.37% # Class of committed instruction. (Count)
system.cpu11.commitStats0.committedInstType::SimdAddAcc            0      0.00%     89.37% # Class of committed instruction. (Count)
system.cpu11.commitStats0.committedInstType::SimdAlu           96      0.01%     89.38% # Class of committed instruction. (Count)
system.cpu11.commitStats0.committedInstType::SimdCmp            0      0.00%     89.38% # Class of committed instruction. (Count)
system.cpu11.commitStats0.committedInstType::SimdCvt           48      0.00%     89.38% # Class of committed instruction. (Count)
system.cpu11.commitStats0.committedInstType::SimdMisc          229      0.02%     89.40% # Class of committed instruction. (Count)
system.cpu11.commitStats0.committedInstType::SimdMult            0      0.00%     89.40% # Class of committed instruction. (Count)
system.cpu11.commitStats0.committedInstType::SimdMultAcc            0      0.00%     89.40% # Class of committed instruction. (Count)
system.cpu11.commitStats0.committedInstType::SimdMatMultAcc            0      0.00%     89.40% # Class of committed instruction. (Count)
system.cpu11.commitStats0.committedInstType::SimdShift            0      0.00%     89.40% # Class of committed instruction. (Count)
system.cpu11.commitStats0.committedInstType::SimdShiftAcc            0      0.00%     89.40% # Class of committed instruction. (Count)
system.cpu11.commitStats0.committedInstType::SimdDiv            0      0.00%     89.40% # Class of committed instruction. (Count)
system.cpu11.commitStats0.committedInstType::SimdSqrt            0      0.00%     89.40% # Class of committed instruction. (Count)
system.cpu11.commitStats0.committedInstType::SimdFloatAdd            0      0.00%     89.40% # Class of committed instruction. (Count)
system.cpu11.commitStats0.committedInstType::SimdFloatAlu            0      0.00%     89.40% # Class of committed instruction. (Count)
system.cpu11.commitStats0.committedInstType::SimdFloatCmp            0      0.00%     89.40% # Class of committed instruction. (Count)
system.cpu11.commitStats0.committedInstType::SimdFloatCvt            0      0.00%     89.40% # Class of committed instruction. (Count)
system.cpu11.commitStats0.committedInstType::SimdFloatDiv            0      0.00%     89.40% # Class of committed instruction. (Count)
system.cpu11.commitStats0.committedInstType::SimdFloatMisc            0      0.00%     89.40% # Class of committed instruction. (Count)
system.cpu11.commitStats0.committedInstType::SimdFloatMult            0      0.00%     89.40% # Class of committed instruction. (Count)
system.cpu11.commitStats0.committedInstType::SimdFloatMultAcc            0      0.00%     89.40% # Class of committed instruction. (Count)
system.cpu11.commitStats0.committedInstType::SimdFloatMatMultAcc            0      0.00%     89.40% # Class of committed instruction. (Count)
system.cpu11.commitStats0.committedInstType::SimdFloatSqrt            0      0.00%     89.40% # Class of committed instruction. (Count)
system.cpu11.commitStats0.committedInstType::SimdReduceAdd            0      0.00%     89.40% # Class of committed instruction. (Count)
system.cpu11.commitStats0.committedInstType::SimdReduceAlu            0      0.00%     89.40% # Class of committed instruction. (Count)
system.cpu11.commitStats0.committedInstType::SimdReduceCmp            0      0.00%     89.40% # Class of committed instruction. (Count)
system.cpu11.commitStats0.committedInstType::SimdFloatReduceAdd            0      0.00%     89.40% # Class of committed instruction. (Count)
system.cpu11.commitStats0.committedInstType::SimdFloatReduceCmp            0      0.00%     89.40% # Class of committed instruction. (Count)
system.cpu11.commitStats0.committedInstType::SimdAes            0      0.00%     89.40% # Class of committed instruction. (Count)
system.cpu11.commitStats0.committedInstType::SimdAesMix            0      0.00%     89.40% # Class of committed instruction. (Count)
system.cpu11.commitStats0.committedInstType::SimdSha1Hash            0      0.00%     89.40% # Class of committed instruction. (Count)
system.cpu11.commitStats0.committedInstType::SimdSha1Hash2            0      0.00%     89.40% # Class of committed instruction. (Count)
system.cpu11.commitStats0.committedInstType::SimdSha256Hash            0      0.00%     89.40% # Class of committed instruction. (Count)
system.cpu11.commitStats0.committedInstType::SimdSha256Hash2            0      0.00%     89.40% # Class of committed instruction. (Count)
system.cpu11.commitStats0.committedInstType::SimdShaSigma2            0      0.00%     89.40% # Class of committed instruction. (Count)
system.cpu11.commitStats0.committedInstType::SimdShaSigma3            0      0.00%     89.40% # Class of committed instruction. (Count)
system.cpu11.commitStats0.committedInstType::SimdPredAlu            0      0.00%     89.40% # Class of committed instruction. (Count)
system.cpu11.commitStats0.committedInstType::Matrix            0      0.00%     89.40% # Class of committed instruction. (Count)
system.cpu11.commitStats0.committedInstType::MatrixMov            0      0.00%     89.40% # Class of committed instruction. (Count)
system.cpu11.commitStats0.committedInstType::MatrixOP            0      0.00%     89.40% # Class of committed instruction. (Count)
system.cpu11.commitStats0.committedInstType::MemRead       105680      9.52%     98.92% # Class of committed instruction. (Count)
system.cpu11.commitStats0.committedInstType::MemWrite        11370      1.02%     99.94% # Class of committed instruction. (Count)
system.cpu11.commitStats0.committedInstType::FloatMemRead          121      0.01%     99.95% # Class of committed instruction. (Count)
system.cpu11.commitStats0.committedInstType::FloatMemWrite          523      0.05%    100.00% # Class of committed instruction. (Count)
system.cpu11.commitStats0.committedInstType::IprAccess            0      0.00%    100.00% # Class of committed instruction. (Count)
system.cpu11.commitStats0.committedInstType::InstPrefetch            0      0.00%    100.00% # Class of committed instruction. (Count)
system.cpu11.commitStats0.committedInstType::SimdUnitStrideLoad            0      0.00%    100.00% # Class of committed instruction. (Count)
system.cpu11.commitStats0.committedInstType::SimdUnitStrideStore            0      0.00%    100.00% # Class of committed instruction. (Count)
system.cpu11.commitStats0.committedInstType::SimdUnitStrideMaskLoad            0      0.00%    100.00% # Class of committed instruction. (Count)
system.cpu11.commitStats0.committedInstType::SimdUnitStrideMaskStore            0      0.00%    100.00% # Class of committed instruction. (Count)
system.cpu11.commitStats0.committedInstType::SimdStridedLoad            0      0.00%    100.00% # Class of committed instruction. (Count)
system.cpu11.commitStats0.committedInstType::SimdStridedStore            0      0.00%    100.00% # Class of committed instruction. (Count)
system.cpu11.commitStats0.committedInstType::SimdIndexedLoad            0      0.00%    100.00% # Class of committed instruction. (Count)
system.cpu11.commitStats0.committedInstType::SimdIndexedStore            0      0.00%    100.00% # Class of committed instruction. (Count)
system.cpu11.commitStats0.committedInstType::SimdWholeRegisterLoad            0      0.00%    100.00% # Class of committed instruction. (Count)
system.cpu11.commitStats0.committedInstType::SimdWholeRegisterStore            0      0.00%    100.00% # Class of committed instruction. (Count)
system.cpu11.commitStats0.committedInstType::SimdUnitStrideFaultOnlyFirstLoad            0      0.00%    100.00% # Class of committed instruction. (Count)
system.cpu11.commitStats0.committedInstType::SimdUnitStrideSegmentedLoad            0      0.00%    100.00% # Class of committed instruction. (Count)
system.cpu11.commitStats0.committedInstType::SimdUnitStrideSegmentedStore            0      0.00%    100.00% # Class of committed instruction. (Count)
system.cpu11.commitStats0.committedInstType::SimdUnitStrideSegmentedFaultOnlyFirstLoad            0      0.00%    100.00% # Class of committed instruction. (Count)
system.cpu11.commitStats0.committedInstType::SimdStrideSegmentedLoad            0      0.00%    100.00% # Class of committed instruction. (Count)
system.cpu11.commitStats0.committedInstType::SimdStrideSegmentedStore            0      0.00%    100.00% # Class of committed instruction. (Count)
system.cpu11.commitStats0.committedInstType::SimdExt            0      0.00%    100.00% # Class of committed instruction. (Count)
system.cpu11.commitStats0.committedInstType::SimdFloatExt            0      0.00%    100.00% # Class of committed instruction. (Count)
system.cpu11.commitStats0.committedInstType::SimdConfig            0      0.00%    100.00% # Class of committed instruction. (Count)
system.cpu11.commitStats0.committedInstType::total      1110526                       # Class of committed instruction. (Count)
system.cpu11.commitStats0.committedControl::IsControl       165109                       # Class of control type instructions committed (Count)
system.cpu11.commitStats0.committedControl::IsDirectControl       164861                       # Class of control type instructions committed (Count)
system.cpu11.commitStats0.committedControl::IsIndirectControl          248                       # Class of control type instructions committed (Count)
system.cpu11.commitStats0.committedControl::IsCondControl       144574                       # Class of control type instructions committed (Count)
system.cpu11.commitStats0.committedControl::IsUncondControl        20535                       # Class of control type instructions committed (Count)
system.cpu11.commitStats0.committedControl::IsCall          180                       # Class of control type instructions committed (Count)
system.cpu11.commitStats0.committedControl::IsReturn          175                       # Class of control type instructions committed (Count)
system.cpu11.exec_context.thread_0.numMatAluAccesses            0                       # Number of matrix alu accesses (Count)
system.cpu11.exec_context.thread_0.numCallsReturns          355                       # Number of times a function call or return occured (Count)
system.cpu11.exec_context.thread_0.numMatInsts            0                       # Number of matrix instructions (Count)
system.cpu11.exec_context.thread_0.numIdleCycles   675.954302                       # Number of idle cycles (Cycle)
system.cpu11.exec_context.thread_0.numBusyCycles 9579351.045698                       # Number of busy cycles (Cycle)
system.cpu11.exec_context.thread_0.notIdleFraction     0.999929                       # Percentage of non-idle cycles (Ratio)
system.cpu11.exec_context.thread_0.idleFraction     0.000071                       # Percentage of idle cycles (Ratio)
system.cpu11.executeStats0.numInsts                 0                       # Number of executed instructions (Count)
system.cpu11.executeStats0.numNop                   0                       # Number of nop insts executed (Count)
system.cpu11.executeStats0.numBranches              0                       # Number of branches executed (Count)
system.cpu11.executeStats0.numLoadInsts             0                       # Number of load instructions executed (Count)
system.cpu11.executeStats0.numStoreInsts       117694                       # Number of stores executed (Count)
system.cpu11.executeStats0.instRate                 0                       # Inst execution rate ((Count/Cycle))
system.cpu11.executeStats0.numFpAluAccesses         1354                       # Number of float alu accesses (Count)
system.cpu11.executeStats0.numFpRegReads         1462                       # Number of times the floating registers were read (Count)
system.cpu11.executeStats0.numFpRegWrites          785                       # Number of times the floating registers were written (Count)
system.cpu11.executeStats0.numIntAluAccesses      1099665                       # Number of integer alu accesses (Count)
system.cpu11.executeStats0.numIntRegReads      1166711                       # Number of times the integer registers were read (Count)
system.cpu11.executeStats0.numIntRegWrites       778122                       # Number of times the integer registers were written (Count)
system.cpu11.executeStats0.numMemRefs          117694                       # Number of memory refs (Count)
system.cpu11.executeStats0.numMiscRegReads       448127                       # Number of times the Misc registers were read (Count)
system.cpu11.executeStats0.numVecAluAccesses            0                       # Number of vector alu accesses (Count)
system.cpu11.executeStats0.numDiscardedOps            0                       # Number of ops (including micro ops) which were discarded before commit (Count)
system.cpu11.fetchStats0.numInsts              649154                       # Number of instructions fetched (thread level) (Count)
system.cpu11.fetchStats0.numOps               1110526                       # Number of ops (including micro ops) fetched (thread level) (Count)
system.cpu11.fetchStats0.fetchRate           0.067761                       # Number of inst fetches per cycle ((Count/Cycle))
system.cpu11.fetchStats0.numBranches           165109                       # Number of branches fetched (Count)
system.cpu11.fetchStats0.branchRate          0.017235                       # Number of branch fetches per cycle (Ratio)
system.cpu11.fetchStats0.numFetchSuspends            0                       # Number of times Execute suspended instruction fetching (Count)
system.cpu11.interrupts.clk_domain.clock         8000                       # Clock period in ticks (Tick)
system.cpu11.mmu.dtb.rdAccesses                105805                       # TLB accesses on read requests (Count)
system.cpu11.mmu.dtb.wrAccesses                 11893                       # TLB accesses on write requests (Count)
system.cpu11.mmu.dtb.rdMisses                      17                       # TLB misses on read requests (Count)
system.cpu11.mmu.dtb.wrMisses                       9                       # TLB misses on write requests (Count)
system.cpu11.mmu.dtb.walker.power_state.pwrStateResidencyTicks::UNDEFINED   4790351500                       # Cumulative time (in ticks) in various power states (Tick)
system.cpu11.mmu.itb.rdAccesses                     0                       # TLB accesses on read requests (Count)
system.cpu11.mmu.itb.wrAccesses                805519                       # TLB accesses on write requests (Count)
system.cpu11.mmu.itb.rdMisses                       0                       # TLB misses on read requests (Count)
system.cpu11.mmu.itb.wrMisses                      46                       # TLB misses on write requests (Count)
system.cpu11.mmu.itb.walker.power_state.pwrStateResidencyTicks::UNDEFINED   4790351500                       # Cumulative time (in ticks) in various power states (Tick)
system.cpu11.power_state.pwrStateResidencyTicks::ON   4790351500                       # Cumulative time (in ticks) in various power states (Tick)
system.cpu11.thread_0.numInsts                      0                       # Number of Instructions committed (Count)
system.cpu11.thread_0.numOps                        0                       # Number of Ops committed (Count)
system.cpu11.thread_0.numMemRefs                    0                       # Number of Memory References (Count)
system.cpu11.workload.numSyscalls                  15                       # Number of system calls (Count)
system.cpu12.numCycles                        9579970                       # Number of cpu cycles simulated (Cycle)
system.cpu12.cpi                            14.799206                       # CPI: cycles per instruction (core level) ((Cycle/Count))
system.cpu12.ipc                             0.067571                       # IPC: instructions per cycle (core level) ((Count/Cycle))
system.cpu12.numWorkItemsStarted                    0                       # Number of work items this cpu started (Count)
system.cpu12.numWorkItemsCompleted                  0                       # Number of work items this cpu completed (Count)
system.cpu12.commitStats0.numInsts             647330                       # Number of instructions committed (thread level) (Count)
[...]
system.ruby.network.routers7.throttle01.link_utilization     1.615779                       # Average link utilization (Ratio)
system.ruby.network.routers7.throttle01.total_msg_count       167462                       # Total number of messages forwarded by this switch (Count)
system.ruby.network.routers7.throttle01.total_msg_bytes      2476848                       # Total number of bytes forwarded by this switch (Byte)
system.ruby.network.routers7.throttle01.total_data_msg_bytes      1137152                       # Total number of data bytes forwarded by this switch (Byte)
system.ruby.network.routers7.throttle01.total_msg_wait_time     15520500                       # Total time spend forwarding messages (Tick)
system.ruby.network.routers7.throttle01.total_stall_cy            0                       # Total time spent blocked on any output link (Cycle)
system.ruby.network.routers7.throttle01.total_bw_sat_cy        71073                       # Total time bandwidth was saturated on any output link (Cycle)
system.ruby.network.routers7.throttle01.avg_msg_wait_time    92.680728                       # Average time a message took to be forwarded (Ratio)
system.ruby.network.routers7.throttle01.avg_bandwidth         0.48                       # Average bandwidth (GB/s) (Ratio)
system.ruby.network.routers7.throttle01.avg_useful_bandwidth         0.22                       # Average useful (only data) bandwidth (GB/s) (Ratio)
system.ruby.network.routers7.throttle01.msg_count.Control::0        68100                       (Unspecified)
system.ruby.network.routers7.throttle01.msg_bytes.Control::0       544800                       (Unspecified)
system.ruby.network.routers7.throttle01.msg_count.Response_Data::1        17764                       (Unspecified)
system.ruby.network.routers7.throttle01.msg_bytes.Response_Data::1      1279008                       (Unspecified)
system.ruby.network.routers7.throttle01.msg_count.Response_Control::1        63462                       (Unspecified)
system.ruby.network.routers7.throttle01.msg_count.Response_Control::2        18132                       (Unspecified)
system.ruby.network.routers7.throttle01.msg_bytes.Response_Control::1       507696                       (Unspecified)
system.ruby.network.routers7.throttle01.msg_bytes.Response_Control::2       145056                       (Unspecified)
system.ruby.network.routers7.throttle01.msg_count.Writeback_Data::1            4                       (Unspecified)
system.ruby.network.routers7.throttle01.msg_bytes.Writeback_Data::1          288                       (Unspecified)
system.ruby.network.routers8.percent_links_utilized     2.725056                       (Unspecified)
system.ruby.network.routers8.msg_count.Control::0        68036                       (Unspecified)
system.ruby.network.routers8.msg_bytes.Control::0       544288                       (Unspecified)
system.ruby.network.routers8.msg_count.Request_Control::2        73419                       (Unspecified)
system.ruby.network.routers8.msg_bytes.Request_Control::2       587352                       (Unspecified)
system.ruby.network.routers8.msg_count.Response_Data::1        84177                       (Unspecified)
system.ruby.network.routers8.msg_bytes.Response_Data::1      6060744                       (Unspecified)
system.ruby.network.routers8.msg_count.Response_Control::1       127249                       (Unspecified)
system.ruby.network.routers8.msg_count.Response_Control::2        17967                       (Unspecified)
system.ruby.network.routers8.msg_bytes.Response_Control::1      1017992                       (Unspecified)
system.ruby.network.routers8.msg_bytes.Response_Control::2       143736                       (Unspecified)
system.ruby.network.routers8.msg_count.Writeback_Data::1            6                       (Unspecified)
system.ruby.network.routers8.msg_bytes.Writeback_Data::1          432                       (Unspecified)
system.ruby.network.routers8.port_buffers1.m_msg_count       130302                       # Number of messages passed the buffer (Count)
system.ruby.network.routers8.port_buffers1.m_buf_msgs     0.013600                       # Average number of messages in buffer ((Count/Tick))
system.ruby.network.routers8.port_buffers2.m_msg_count        73419                       # Number of messages passed the buffer (Count)
system.ruby.network.routers8.port_buffers2.m_buf_msgs     0.007663                       # Average number of messages in buffer ((Count/Tick))
system.ruby.network.routers8.port_buffers3.m_msg_count        68036                       # Number of messages passed the buffer (Count)
system.ruby.network.routers8.port_buffers3.m_buf_msgs     0.007101                       # Average number of messages in buffer ((Count/Tick))
system.ruby.network.routers8.port_buffers4.m_msg_count        81130                       # Number of messages passed the buffer (Count)
system.ruby.network.routers8.port_buffers4.m_buf_msgs     0.011687                       # Average number of messages in buffer ((Count/Tick))
system.ruby.network.routers8.port_buffers4.m_stall_time     15422000                       # Total number of ticks messages were stalled in this buffer (Tick)
system.ruby.network.routers8.port_buffers4.m_avg_stall_time   190.089979                       # Average stall ticks per message ((Tick/Count))
system.ruby.network.routers8.port_buffers5.m_msg_count        17967                       # Number of messages passed the buffer (Count)
system.ruby.network.routers8.port_buffers5.m_buf_msgs     0.001875                       # Average number of messages in buffer ((Count/Tick))
system.ruby.network.routers8.power_state.pwrStateResidencyTicks::UNDEFINED   4790351500                       # Cumulative time (in ticks) in various power states (Tick)
system.ruby.network.routers8.throttle00.acc_link_utilization 367708.500000                       # Accumulated link utilization system.ruby.network.ext_links08 (Count)
system.ruby.network.routers8.throttle00.link_utilization     3.838012                       # Average link utilization (Ratio)
system.ruby.network.routers8.throttle00.total_msg_count       203721                       # Total number of messages forwarded by this switch (Count)
system.ruby.network.routers8.throttle00.total_msg_bytes      5883336                       # Total number of bytes forwarded by this switch (Byte)
system.ruby.network.routers8.throttle00.total_data_msg_bytes      4253568                       # Total number of data bytes forwarded by this switch (Byte)
system.ruby.network.routers8.throttle00.total_msg_wait_time            0                       # Total time spend forwarding messages (Tick)
system.ruby.network.routers8.throttle00.total_stall_cy            0                       # Total time spent blocked on any output link (Cycle)
system.ruby.network.routers8.throttle00.total_bw_sat_cy       265848                       # Total time bandwidth was saturated on any output link (Cycle)
system.ruby.network.routers8.throttle00.avg_msg_wait_time            0                       # Average time a message took to be forwarded (Ratio)
system.ruby.network.routers8.throttle00.avg_bandwidth         1.14                       # Average bandwidth (GB/s) (Ratio)
system.ruby.network.routers8.throttle00.avg_useful_bandwidth         0.83                       # Average useful (only data) bandwidth (GB/s) (Ratio)
system.ruby.network.routers8.throttle00.msg_count.Request_Control::2        73419                       (Unspecified)
system.ruby.network.routers8.throttle00.msg_bytes.Request_Control::2       587352                       (Unspecified)
system.ruby.network.routers8.throttle00.msg_count.Response_Data::1        66462                       (Unspecified)
system.ruby.network.routers8.throttle00.msg_bytes.Response_Data::1      4785264                       (Unspecified)
system.ruby.network.routers8.throttle00.msg_count.Response_Control::1        63840                       (Unspecified)
system.ruby.network.routers8.throttle00.msg_bytes.Response_Control::1       510720                       (Unspecified)
system.ruby.network.routers8.throttle01.acc_link_utilization 154450.500000                       # Accumulated link utilization system.ruby.network.int_links08 (Count)
system.ruby.network.routers8.throttle01.link_utilization     1.612100                       # Average link utilization (Ratio)
system.ruby.network.routers8.throttle01.total_msg_count       167133                       # Total number of messages forwarded by this switch (Count)
system.ruby.network.routers8.throttle01.total_msg_bytes      2471208                       # Total number of bytes forwarded by this switch (Byte)
system.ruby.network.routers8.throttle01.total_data_msg_bytes      1134144                       # Total number of data bytes forwarded by this switch (Byte)
system.ruby.network.routers8.throttle01.total_msg_wait_time     15422000                       # Total time spend forwarding messages (Tick)
system.ruby.network.routers8.throttle01.total_stall_cy            0                       # Total time spent blocked on any output link (Cycle)
system.ruby.network.routers8.throttle01.total_bw_sat_cy        70884                       # Total time bandwidth was saturated on any output link (Cycle)
system.ruby.network.routers8.throttle01.avg_msg_wait_time    92.273818                       # Average time a message took to be forwarded (Ratio)
system.ruby.network.routers8.throttle01.avg_bandwidth         0.48                       # Average bandwidth (GB/s) (Ratio)
system.ruby.network.routers8.throttle01.avg_useful_bandwidth         0.22                       # Average useful (only data) bandwidth (GB/s) (Ratio)
system.ruby.network.routers8.throttle01.msg_count.Control::0        68036                       (Unspecified)
system.ruby.network.routers8.throttle01.msg_bytes.Control::0       544288                       (Unspecified)
system.ruby.network.routers8.throttle01.msg_count.Response_Data::1        17715                       (Unspecified)
system.ruby.network.routers8.throttle01.msg_bytes.Response_Data::1      1275480                       (Unspecified)
system.ruby.network.routers8.throttle01.msg_count.Response_Control::1        63409                       (Unspecified)
system.ruby.network.routers8.throttle01.msg_count.Response_Control::2        17967                       (Unspecified)
system.ruby.network.routers8.throttle01.msg_bytes.Response_Control::1       507272                       (Unspecified)
system.ruby.network.routers8.throttle01.msg_bytes.Response_Control::2       143736                       (Unspecified)
system.ruby.network.routers8.throttle01.msg_count.Writeback_Data::1            6                       (Unspecified)
system.ruby.network.routers8.throttle01.msg_bytes.Writeback_Data::1          432                       (Unspecified)
system.ruby.network.routers9.percent_links_utilized     2.728312                       (Unspecified)
system.ruby.network.routers9.msg_count.Control::0        68130                       (Unspecified)
system.ruby.network.routers9.msg_bytes.Control::0       545040                       (Unspecified)
system.ruby.network.routers9.msg_count.Request_Control::2        73428                       (Unspecified)
system.ruby.network.routers9.msg_bytes.Request_Control::2       587424                       (Unspecified)
system.ruby.network.routers9.msg_count.Response_Data::1        84192                       (Unspecified)
system.ruby.network.routers9.msg_bytes.Response_Data::1      6061824                       (Unspecified)
system.ruby.network.routers9.msg_count.Response_Control::1       128181                       (Unspecified)
system.ruby.network.routers9.msg_count.Response_Control::2        18072                       (Unspecified)
system.ruby.network.routers9.msg_bytes.Response_Control::1      1025448                       (Unspecified)
system.ruby.network.routers9.msg_bytes.Response_Control::2       144576                       (Unspecified)
system.ruby.network.routers9.msg_count.Writeback_Data::1            3                       (Unspecified)
system.ruby.network.routers9.msg_bytes.Writeback_Data::1          216                       (Unspecified)
system.ruby.network.routers9.port_buffers1.m_msg_count       131249                       # Number of messages passed the buffer (Count)
system.ruby.network.routers9.port_buffers1.m_buf_msgs     0.013699                       # Average number of messages in buffer ((Count/Tick))
system.ruby.network.routers9.port_buffers2.m_msg_count        73428                       # Number of messages passed the buffer (Count)
system.ruby.network.routers9.port_buffers2.m_buf_msgs     0.007664                       # Average number of messages in buffer ((Count/Tick))
system.ruby.network.routers9.port_buffers3.m_msg_count        68130                       # Number of messages passed the buffer (Count)
system.ruby.network.routers9.port_buffers3.m_buf_msgs     0.007111                       # Average number of messages in buffer ((Count/Tick))
system.ruby.network.routers9.port_buffers4.m_msg_count        81127                       # Number of messages passed the buffer (Count)
system.ruby.network.routers9.port_buffers4.m_buf_msgs     0.011682                       # Average number of messages in buffer ((Count/Tick))
system.ruby.network.routers9.port_buffers4.m_stall_time     15398000                       # Total number of ticks messages were stalled in this buffer (Tick)
system.ruby.network.routers9.port_buffers4.m_avg_stall_time   189.801176                       # Average stall ticks per message ((Tick/Count))
system.ruby.network.routers9.port_buffers5.m_msg_count        18072                       # Number of messages passed the buffer (Count)
system.ruby.network.routers9.port_buffers5.m_buf_msgs     0.001886                       # Average number of messages in buffer ((Count/Tick))
system.ruby.network.routers9.power_state.pwrStateResidencyTicks::UNDEFINED   4790351500                       # Cumulative time (in ticks) in various power states (Tick)
system.ruby.network.routers9.throttle00.acc_link_utilization 368294.500000                       # Accumulated link utilization system.ruby.network.ext_links09 (Count)
system.ruby.network.routers9.throttle00.link_utilization     3.844128                       # Average link utilization (Ratio)
system.ruby.network.routers9.throttle00.total_msg_count       204677                       # Total number of messages forwarded by this switch (Count)
system.ruby.network.routers9.throttle00.total_msg_bytes      5892712                       # Total number of bytes forwarded by this switch (Byte)
system.ruby.network.routers9.throttle00.total_data_msg_bytes      4255296                       # Total number of data bytes forwarded by this switch (Byte)
system.ruby.network.routers9.throttle00.total_msg_wait_time            0                       # Total time spend forwarding messages (Tick)
system.ruby.network.routers9.throttle00.total_stall_cy            0                       # Total time spent blocked on any output link (Cycle)
system.ruby.network.routers9.throttle00.total_bw_sat_cy       265956                       # Total time bandwidth was saturated on any output link (Cycle)
system.ruby.network.routers9.throttle00.avg_msg_wait_time            0                       # Average time a message took to be forwarded (Ratio)
system.ruby.network.routers9.throttle00.avg_bandwidth         1.15                       # Average bandwidth (GB/s) (Ratio)
system.ruby.network.routers9.throttle00.avg_useful_bandwidth         0.83                       # Average useful (only data) bandwidth (GB/s) (Ratio)
system.ruby.network.routers9.throttle00.msg_count.Request_Control::2        73428                       (Unspecified)
system.ruby.network.routers9.throttle00.msg_bytes.Request_Control::2       587424                       (Unspecified)
system.ruby.network.routers9.throttle00.msg_count.Response_Data::1        66489                       (Unspecified)
system.ruby.network.routers9.throttle00.msg_bytes.Response_Data::1      4787208                       (Unspecified)
system.ruby.network.routers9.throttle00.msg_count.Response_Control::1        64760                       (Unspecified)
system.ruby.network.routers9.throttle00.msg_bytes.Response_Control::1       518080                       (Unspecified)
system.ruby.network.routers9.throttle01.acc_link_utilization 154488.500000                       # Accumulated link utilization system.ruby.network.int_links09 (Count)
system.ruby.network.routers9.throttle01.link_utilization     1.612496                       # Average link utilization (Ratio)
system.ruby.network.routers9.throttle01.total_msg_count       167329                       # Total number of messages forwarded by this switch (Count)
system.ruby.network.routers9.throttle01.total_msg_bytes      2471816                       # Total number of bytes forwarded by this switch (Byte)
system.ruby.network.routers9.throttle01.total_data_msg_bytes      1133184                       # Total number of data bytes forwarded by this switch (Byte)
system.ruby.network.routers9.throttle01.total_msg_wait_time     15398000                       # Total time spend forwarding messages (Tick)
system.ruby.network.routers9.throttle01.total_stall_cy            0                       # Total time spent blocked on any output link (Cycle)
system.ruby.network.routers9.throttle01.total_bw_sat_cy        70824                       # Total time bandwidth was saturated on any output link (Cycle)
system.ruby.network.routers9.throttle01.avg_msg_wait_time    92.022303                       # Average time a message took to be forwarded (Ratio)
system.ruby.network.routers9.throttle01.avg_bandwidth         0.48                       # Average bandwidth (GB/s) (Ratio)
system.ruby.network.routers9.throttle01.avg_useful_bandwidth         0.22                       # Average useful (only data) bandwidth (GB/s) (Ratio)
system.ruby.network.routers9.throttle01.msg_count.Control::0        68130                       (Unspecified)
system.ruby.network.routers9.throttle01.msg_bytes.Control::0       545040                       (Unspecified)
system.ruby.network.routers9.throttle01.msg_count.Response_Data::1        17703                       (Unspecified)
system.ruby.network.routers9.throttle01.msg_bytes.Response_Data::1      1274616                       (Unspecified)
system.ruby.network.routers9.throttle01.msg_count.Response_Control::1        63421                       (Unspecified)
system.ruby.network.routers9.throttle01.msg_count.Response_Control::2        18072                       (Unspecified)
system.ruby.network.routers9.throttle01.msg_bytes.Response_Control::1       507368                       (Unspecified)
system.ruby.network.routers9.throttle01.msg_bytes.Response_Control::2       144576                       (Unspecified)
system.ruby.network.routers9.throttle01.msg_count.Writeback_Data::1            3                       (Unspecified)
system.ruby.network.routers9.throttle01.msg_bytes.Writeback_Data::1          216                       (Unspecified)
system.ruby.power_state.pwrStateResidencyTicks::UNDEFINED   4790351500                       # Cumulative time (in ticks) in various power states (Tick)
system.sys_port_proxy.power_state.pwrStateResidencyTicks::UNDEFINED   4790351500                       # Cumulative time (in ticks) in various power states (Tick)
system.voltage_domain.voltage                       1                       # Voltage in Volts (Volt)
system.workload.inst.arm                            0                       # number of arm instructions executed (Count)
system.workload.inst.quiesce                        0                       # number of quiesce instructions executed (Count)

---------- End Simulation Statistics   ----------
